180
frame 5 | Written by MDAnalysis XYZWriter (release 2.4.3)
       H   -11.78583    7.57945   14.76573
       O   -10.91367    7.26458   14.49783
      H1   -10.39599    7.51076   15.28745
       H    -1.49726    1.55762   14.20725
       O    -1.30290    2.50965   14.25945
      H1    -1.02088    2.60919   13.33842
       H    -6.45974    2.09008    9.45901
       O    -6.78235    1.73772   10.29660
      H1    -7.70823    1.96627   10.36087
       H   -14.60555    4.08532   19.25600
       O   -14.92963    3.20520   19.17677
      H1   -15.07716    3.09530   18.24222
       H    -6.07269    5.64571   17.14666
       O    -5.68248    5.84559   17.98485
      H1    -4.80788    5.41331   17.88760
       H    -2.79531    5.01429   18.39663
       O    -2.74394    4.91981   17.39715
      H1    -2.02599    4.28229   17.35180
       H    -9.52189    8.01886   13.54852
       O    -8.91055    8.28183   12.80668
      H1    -8.07138    8.31287   13.25373
       H     0.12961    2.83058   17.14756
       O    -0.66750    3.20388   16.77251
      H1    -0.59333    2.80931   15.87814
       H   -12.38001   -2.01730   16.53063
       O   -12.52918   -1.18693   16.09905
      H1   -12.27706   -1.21402   15.17941
       H    -3.59888    9.71543   18.61785
       O    -4.50202    9.43689   18.51658
      H1    -4.58020    9.05370   17.65043
       H    -2.93584    1.26262   17.16083
       O    -2.38985    0.45542   17.37769
      H1    -1.56954    0.77999   17.88734
       H   -10.60939    4.53510   15.36438
       O   -10.50838    4.72421   14.43331
      H1   -10.69367    5.68500   14.43089
       H    -9.75998    4.41091   17.48505
       O   -10.69993    4.10095   17.44436
      H1   -10.63266    3.26039   17.92142
       H   -10.25364    1.27498   16.29375
       O   -10.80158    1.87389   15.82482
      H1   -10.71971    2.67494   16.41492
       H   -14.49472    7.84459   15.00346
       O   -13.58490    7.84976   14.72521
      H1   -13.61473    7.37936   13.91420
       H   -13.76170    3.40554   16.09985
       O   -14.31612    4.24111   16.31223
      H1   -13.78886    4.83617   16.87080
       H    -3.42358    2.68288   13.25729
       O    -3.91500    1.99307   12.88459
      H1    -3.55840    1.18753   13.28852
       H    -4.13820    3.07436   11.43133
       O    -4.72702    3.45167   10.75587
      H1    -5.49618    2.89590   10.98532
       H    -9.93489    4.95207    9.67220
       O    -9.46607    5.87062    9.80532
      H1    -9.00719    5.71575   10.62742
       H    -3.89529   11.88972   18.47512
       O    -2.96681   11.92027   18.16631
      H1    -3.03347   11.88590   17.16950
       H    -9.62966   -1.92692   18.80426
       O   -10.23184   -2.33244   18.11698
      H1   -11.13600   -2.05370   18.38490
       H    -9.13685    3.68700   14.12384
       O    -8.33701    3.42509   13.59630
      H1    -8.19402    2.52251   13.93281
       H    -6.50086   10.02438   15.21393
       O    -6.52152    9.21463   15.78682
      H1    -6.45642    8.53918   15.09657
       H    -6.13418    6.55493   13.60154
       O    -6.78912    6.97877   14.20497
      H1    -6.88868    6.28588   14.83945
       H   -12.55390    8.60084   18.26675
       O   -11.68903    8.10348   18.39615
      H1   -11.98440    7.14158   18.41331
       H   -13.65241    1.33163   17.66066
       O   -13.56507    0.80527   18.49060
      H1   -13.87606    1.35098   19.20231
       H   -10.00613    9.93420   14.95841
       O   -10.31224   10.41607   14.16009
      H1    -9.97832    9.93958   13.40764
       H    -8.37938    9.84757   18.95088
       O    -7.98414    9.04199   18.47875
      H1    -7.25978    9.39095   17.94872
       H     0.10208    6.63593   16.36313
       O    -0.27488    7.43299   15.88162
      H1    -0.93409    7.10313   15.26241
       H    -2.09284   -1.50933   17.79224
       O    -2.24068   -2.46983   17.82743
      H1    -1.73163   -2.86418   17.06814
       H   -11.32045    0.85112   13.14587
       O   -11.45201   -0.07643   13.38866
      H1   -10.62357   -0.50700   13.11189
       H   -10.07560   -3.78545   15.11840
       O    -9.62807   -2.95779   15.36953
      H1   -10.03535   -2.79954   16.22095
       H    -8.14668    6.39442   12.42687
       O    -7.68606    5.75586   11.87103
      H1    -7.91974    4.90790   12.35125
       H    -5.61273   -3.49000   17.68568
       O    -5.23526   -2.65974   17.55902
      H1    -4.28121   -2.85908   17.56782
       H    -9.10989    2.66275   11.74085
       O    -9.69232    2.23348   11.08953
      H1   -10.58614    2.38057   11.46687
       H     0.58670    5.24529   17.64864
       O     1.39495    5.72774   17.38621
      H1     1.92380    5.86162   18.19247
       H    -5.24248   11.94286   15.61654
       O    -5.87255   11.61806   14.90480
      H1    -6.62457   12.18163   15.09087
       H    -5.17659   -1.92107   14.66549
       O    -6.12495   -2.08984   15.04905
      H1    -5.78399   -2.34377   15.96852
       H    -8.17796   -0.03302   16.33989
       O    -8.95490   -0.26074   16.98115
      H1    -9.28098   -1.12757   16.70588
       H    -1.27258   -0.76029   13.96865
       O    -1.82433   -0.04010   14.32942
      H1    -1.88967   -0.21862   15.25929
       H    -5.97392    3.87825   15.63581
       O    -6.84179    4.32512   15.70960
      H1    -7.30249    3.77609   15.09944
       H    -6.35725   -0.14651   12.78526
       O    -6.96610   -0.30629   12.06183
      H1    -6.70528    0.42582   11.44159
       H    -8.18958    3.84778   19.56438
       O    -7.93963    3.79806   18.63806
      H1    -6.98922    4.05523   18.62041
       H    -3.78767    5.28485   14.79271
       O    -4.11182    4.62136   14.13682
      H1    -4.27605    5.10968   13.33052
       H    -3.59674    3.38579   16.87691
       O    -3.95270    2.54347   16.53154
      H1    -3.29329    2.43253   15.80911
       H    -1.03114    8.82961   18.54522
       O    -1.59660    8.10730   18.72884
      H1    -1.38790    7.57742   17.93780
       H   -12.74326    5.46699   19.38091
       O   -12.87556    5.66140   18.45447
      H1   -12.07446    5.18137   18.05984
       H    -2.58568    6.22689   16.21665
       O    -2.66764    6.49441   15.27498
      H1    -2.98858    7.40029   15.55598
       H    -8.39425   -0.61667   18.50561
       O    -8.11729   -0.49078   19.44992
      H1    -7.55096   -1.24820   19.65450
       H    -9.38281   -1.84418   14.01111
       O    -9.26295   -1.40289   13.15142
      H1    -8.49618   -0.77353   13.24627
       H    -7.14090    0.87299   18.50155
       O    -6.55749    1.52956   18.07789
      H1    -7.18351    2.34102   18.06439
       H    -1.44410    5.33866   13.80941
       O    -0.58062    5.56525   13.50765
      H1    -0.78622    5.77889   12.63141
       H    -5.33137    7.45168   11.90857
       O    -5.18510    6.48392   11.91693
      H1    -6.10123    6.24202   11.69761
       H   -12.95450    2.38075   12.49614
       O   -11.99976    2.61793   12.38822
      H1   -11.95494    3.37885   13.01937
       H    -3.22949   -0.72159   13.95532
       O    -4.16967   -0.95960   13.70780
      H1    -4.11448   -1.57516   12.89231
       H    -8.98865    9.05737   16.80533
       O    -9.87716    8.87014   16.39087
      H1   -10.42668    8.68916   17.15880
       H    -6.42179    0.71149   16.13976
       O    -6.92961    0.35471   15.35932
      H1    -6.60037   -0.57706   15.27995
       H    -2.95128    9.55850   15.86607
       O    -3.50143    8.82863   16.02534
      H1    -4.40872    9.12646   15.73052
       H    -7.96101    5.96001   17.87182
       O    -8.73476    6.05822   17.28985
      H1    -8.89496    6.99671   17.38624
       H   -14.03194    1.32671   14.87197
       O   -13.69737    1.69849   15.69563
      H1   -12.76843    1.44346   15.62610

