180
frame 0 | Written by MDAnalysis XYZWriter (release 2.4.3)
       H    14.17976  -16.81157    2.70103
       O    14.89097  -16.20582    2.34138
      H1    14.51360  -15.40172    2.74247
       H    17.93490   -8.79221   16.26886
       O    18.88594   -8.88923   16.57065
      H1    19.28465   -8.90046   15.64526
       H    17.95812  -13.57039    7.75370
       O    17.02763  -13.61472    7.47035
      H1    17.05637  -13.83844    6.53031
       H    18.03749  -14.24182   12.22954
       O    17.86156  -13.35582   11.84581
      H1    17.55347  -12.90965   12.62528
       H    15.56831  -18.21075   14.16369
       O    14.72514  -18.70142   13.94536
      H1    14.05644  -18.05337   14.31793
       H    19.55572   -5.63535   15.43225
       O    19.14245   -6.10522   16.19235
      H1    19.37477   -7.04181   15.95783
       H    17.83141  -10.34292   11.15641
       O    18.62095   -9.96438   11.62415
      H1    18.93081   -9.30702   11.00534
       H    14.30025  -13.62163   12.17549
       O    14.01327  -14.47067   11.75939
      H1    13.63563  -14.13888   10.94019
       H    16.21273  -12.81881   17.61511
       O    16.45496  -12.86614   18.53995
      H1    17.16032  -12.14143   18.52025
       H    12.89465  -10.83061   10.82658
       O    12.26272  -11.53168   10.91588
      H1    11.46912  -11.12430   10.47486
       H    13.71599  -12.01125   13.44281
       O    14.60044  -12.26877   13.16933
      H1    14.92462  -12.73835   13.89623
       H    15.97192   -9.38092    2.24653
       O    16.46848   -8.56137    2.24327
      H1    16.53109   -8.39983    1.27988
       H    19.52871  -13.41668    2.56643
       O    18.70209  -12.96537    2.44997
      H1    19.08278  -12.08990    2.58687
       H    16.86779  -14.82310   -0.20081
       O    17.66549  -14.31915    0.03509
      H1    17.49548  -14.25533    0.98278
       H    11.09608  -15.96877   12.19383
       O    11.49617  -15.58449   12.93751
      H1    12.26603  -15.17691   12.52866
       H    12.93656  -12.69991    9.70009
       O    13.21299  -13.44334    9.14867
      H1    14.18782  -13.39463    9.36497
       H    15.19771   -6.22482    7.00156
       O    14.99669   -5.55206    7.65627
      H1    14.23374   -5.93079    8.13916
       H    13.47141  -13.11585    2.89283
       O    14.21380  -13.64162    3.19121
      H1    14.04032  -13.99795    4.09341
       H    12.64297  -13.61366   15.32082
       O    13.43508  -14.22115   15.30291
      H1    13.26383  -14.78022   16.05559
       H    16.96093   -5.27256   13.03648
       O    16.71322   -4.72357   12.28060
      H1    17.06617   -3.87155   12.63125
       H    17.52606  -19.57062   11.37813
       O    17.78653  -19.67526   10.47903
      H1    17.68321  -18.73518   10.15607
       H    16.96034   -7.29372   12.56590
       O    16.90153   -7.46942   13.51514
      H1    16.00697   -7.72893   13.52787
       H    17.72377  -10.68046    8.40934
       O    17.45683   -9.98085    7.76363
      H1    17.32908   -9.23892    8.43317
       H    16.35415  -11.71930   13.71839
       O    17.29089  -11.56304   13.83051
      H1    17.54657  -10.88970   13.21881
       H    15.55636   -8.01088    5.12247
       O    15.80721   -7.25252    5.65724
      H1    16.72532   -7.27528    5.87824
       H    17.22321   -5.01610    7.10391
       O    18.11342   -5.36028    7.48029
      H1    18.61069   -5.28522    6.64039
       H    18.83823  -12.49715   10.32038
       O    18.83883  -12.44345    9.32817
      H1    19.69851  -11.93641    9.20119
       H    18.21618  -16.94418    8.48326
       O    17.77765  -17.15941    9.33446
      H1    16.95559  -16.64502    9.25469
       H    18.88715  -10.16471    3.68423
       O    19.57898  -10.23921    3.00590
      H1    19.12906   -9.78596    2.26488
       H    12.75833  -15.72103    9.29269
       O    12.69491  -16.65433    9.08500
      H1    13.14254  -17.02452    9.91169
       H    15.63548  -16.11634    4.03935
       O    15.71334  -16.27630    5.02650
      H1    15.52934  -17.19411    5.12228
       H    18.27511  -18.10556    2.85812
       O    18.48626  -18.11786    1.89841
      H1    19.27993  -18.71824    1.92000
       H    12.31405   -8.81982    7.63575
       O    11.59872   -8.61276    6.99335
      H1    12.15457   -8.06723    6.42649
       H    16.19165  -18.91958    6.54460
       O    16.90334  -18.76862    7.22532
      H1    16.61419  -18.00176    7.67689
       H    15.85740   -6.39471   15.58349
       O    16.37611   -5.79084   16.20748
      H1    17.35007   -6.08052   16.19269
       H    15.16827  -15.36581   13.14917
       O    15.75085  -15.30828   13.91024
      H1    15.32109  -15.14178   14.75583
       H    15.98754   -9.49090   17.42029
       O    15.96883   -9.72358   16.51359
      H1    15.58744   -8.91295   16.16623
       H    15.92781  -15.22670    8.01028
       O    15.52059  -15.97075    8.51964
      H1    14.66925  -16.16583    8.13495
       H    12.35128  -16.28281    6.53069
       O    12.07900  -17.13433    6.09661
      H1    12.81449  -17.73178    6.25872
       H    16.07154   -6.49927    8.90237
       O    16.29627   -7.41691    9.10354
      H1    16.79558   -7.31944    9.88119
       H    18.24475  -16.58188   13.25056
       O    18.91996  -16.14302   12.69068
      H1    19.12154  -16.82694   12.08920
       H    17.57139   -7.87088    3.59662
       O    17.96112   -7.22661    4.12897
      H1    18.27260   -6.58020    3.47027
       H    18.67839  -10.69135   17.33348
       O    18.69307  -11.22181   18.11287
      H1    18.43991  -10.59127   18.80730
       H    17.70046   -5.69938   11.22262
       O    18.15024   -6.54990   10.97602
      H1    18.49038   -6.33504   10.09726
       H    16.01190  -11.52878   10.47499
       O    16.16831  -10.53818   10.43393
      H1    15.36479  -10.25132   10.91783
       H    15.75633  -11.54337   16.16745
       O    15.71386  -12.54638   16.00460
      H1    14.71425  -12.78631   15.96080
       H    12.66244  -14.12379    7.41189
       O    12.64800  -14.47906    6.50452
      H1    12.22581  -13.79915    5.96798
       H    13.75446   -9.19698    9.94498
       O    13.63236   -9.27550   10.89976
      H1    13.49600   -8.34076   11.22541
       H    13.68157   -7.70707   14.92996
       O    14.47251   -7.13435   14.81761
      H1    14.18208   -6.28401   14.50980
       H    16.31546  -13.29816    9.09209
       O    15.83287  -13.13028    9.94757
      H1    16.30559  -13.62803   10.61517
       H    14.75594  -11.44627    1.22761
       O    15.01216  -10.85902    1.93503
      H1    15.69171  -11.37317    2.35420
       H    17.20394  -10.32562    6.14471
       O    17.38326  -10.29839    5.16572
      H1    17.21006  -11.23369    4.92905
       H    16.57853  -16.81228   13.75140
       O    17.19828  -17.60430   13.82262
      H1    17.35107  -17.68062   14.78761
       H    14.18950  -10.83888    4.93122
       O    14.65183  -10.23368    5.50780
      H1    15.54337  -10.26523    5.15870
       H    14.95818   -4.90121    4.89218
       O    14.83735   -5.27715    3.94932
      H1    15.16936   -6.17743    4.17367
       H    17.43894  -12.43824    0.04101
       O    17.56580  -11.49838    0.28096
      H1    18.36096  -11.63080    0.86083
       H    17.52194  -16.62266    4.86990
       O    18.43612  -16.91904    4.79119
      H1    18.74622  -16.96512    5.68966
       H    17.38852  -13.01760    3.44656
       O    16.61965  -12.73472    4.04603
      H1    15.92879  -13.16913    3.52360
       H    14.01391  -19.16091   10.45646
       O    13.83445  -18.31706   10.97276
      H1    14.25375  -18.47052   11.78882
       H    14.16575   -9.44473    7.20056
       O    14.13777   -9.14310    8.08924
      H1    14.96919   -8.71980    8.20077

