180
frame 6 | Written by MDAnalysis XYZWriter (release 2.4.3)
       H   -14.31149  -12.07863   10.11129
       O   -14.13444  -12.53047    9.33502
      H1   -14.48881  -11.98846    8.61331
       H   -16.79229  -17.51740   15.76122
       O   -16.26970  -17.65552   14.90869
      H1   -16.71295  -18.46333   14.53097
       H   -15.83075  -12.65863   -0.08655
       O   -16.26523  -12.74381   -0.92901
      H1   -16.77063  -13.52977   -0.78224
       H   -11.37299  -13.86530   13.20389
       O   -11.74543  -14.44415   12.55842
      H1   -12.69126  -14.32402   12.51386
       H   -18.04428   -9.92236   11.50055
       O   -17.84408  -10.85267   11.42797
      H1   -18.33722  -11.32259   12.12830
       H   -20.22060  -13.47985    0.22211
       O   -19.43733  -13.05395   -0.10622
      H1   -19.03518  -12.67283    0.67866
       H   -17.79495  -19.72306    6.61318
       O   -18.52580  -19.09332    6.90372
      H1   -18.59637  -19.29935    7.86336
       H   -10.49901  -18.60849    5.78569
       O    -9.67385  -18.51301    5.23665
      H1    -9.38997  -19.42081    5.14814
       H   -17.65586  -13.05315    2.79960
       O   -18.07995  -12.21960    2.39394
      H1   -17.50023  -11.43368    2.54676
       H    -9.87590  -17.38148    2.12664
       O    -9.24094  -18.04754    2.45615
      H1    -9.59719  -18.27637    3.28722
       H   -15.12542  -18.84549   11.10808
       O   -14.98830  -18.38021   11.91673
      H1   -14.08277  -18.04242   11.80846
       H   -15.00154  -12.42243   15.86961
       O   -15.89061  -12.54115   16.17544
      H1   -16.22117  -13.33991   15.70640
       H   -18.08159  -15.77074    6.36251
       O   -18.72214  -15.04666    6.62857
      H1   -19.52212  -15.12914    6.05795
       H   -18.56717  -10.29336   14.81908
       O   -17.97424  -10.11668   15.60103
      H1   -17.11861   -9.81951   15.19332
       H   -16.96800   -9.16675    8.33496
       O   -17.01830   -9.35461    7.38892
      H1   -17.88164   -9.58070    7.13201
       H   -17.64986  -14.99518    4.03656
       O   -17.20895  -14.57491    3.23722
      H1   -16.61738  -13.99056    3.68217
       H    -9.97925  -14.38047    4.21352
       O    -9.85256  -13.53768    3.75368
      H1    -9.29863  -13.64039    3.00557
       H   -19.25781  -14.97876   11.75871
       O   -18.85590  -14.91202   12.65493
      H1   -19.48627  -14.35563   13.11667
       H   -10.24093  -14.42352    7.82398
       O    -9.75229  -15.23124    7.94033
      H1   -10.33866  -15.89936    8.27511
       H   -16.05939  -19.02516   -0.10786
       O   -16.05436  -18.06647    0.24225
      H1   -16.03713  -18.09060    1.25504
       H   -16.30075  -17.49562    4.06124
       O   -15.63780  -17.69134    3.38320
      H1   -15.06656  -18.32913    3.73712
       H   -13.08356  -14.42291   18.35172
       O   -13.86557  -14.40549   17.77817
      H1   -13.96638  -15.29096   17.48295
       H   -15.28119  -13.98292    9.18823
       O   -15.96993  -14.69908    9.17522
      H1   -15.95632  -15.19795   10.00511
       H   -15.35471  -12.48848   12.53143
       O   -15.25570  -11.71464   12.01153
      H1   -16.06794  -11.51324   11.49556
       H   -12.18853  -17.19125   10.70247
       O   -12.50196  -17.20233   11.62623
      H1   -12.16304  -16.39691   12.06851
       H   -18.04590  -13.46979    6.58033
       O   -17.60753  -12.56594    6.43361
      H1   -17.59036  -12.22580    7.29678
       H   -12.44921  -11.81468    4.14146
       O   -12.26659  -12.02697    3.23100
      H1   -11.39380  -12.50512    3.23661
       H   -14.98993  -13.94967    1.81514
       O   -14.42693  -13.21922    1.38155
      H1   -13.64089  -13.12479    1.92124
       H   -12.15204  -16.09846    1.85706
       O   -11.48819  -16.57198    1.36344
      H1   -11.19215  -15.98464    0.67057
       H    -9.87287  -16.64852    5.04099
       O    -9.61602  -15.75290    5.26763
      H1    -9.70396  -15.59834    6.20643
       H   -17.22262   -9.16645    3.53155
       O   -17.26449   -9.63378    2.69345
      H1   -16.56857   -9.26053    2.13092
       H   -14.89892  -14.71723   13.23754
       O   -14.37989  -14.03254   13.66047
      H1   -14.68424  -14.14357   14.55931
       H   -12.03495  -11.92681    6.32721
       O   -12.18620  -11.09190    5.84163
      H1   -11.28165  -10.66811    5.89859
       H    -8.16673  -18.58922   10.22058
       O    -8.79674  -18.59597    9.48250
      H1    -8.26309  -18.46476    8.65998
       H   -13.37835  -18.52579    7.63576
       O   -13.98363  -17.92633    8.11808
      H1   -14.66224  -18.53143    8.49668
       H   -13.29852  -10.38155   11.71735
       O   -12.67924   -9.89140   11.12471
      H1   -13.08764   -9.63110   10.27639
       H   -18.77201  -14.26774   -1.11936
       O   -18.42447  -14.87033   -1.83623
      H1   -18.67069  -14.47055   -2.65155
       H   -11.59035  -15.81968   14.01084
       O   -11.55368  -16.51655   14.61178
      H1   -10.69023  -16.52391   14.90847
       H    -8.07644  -18.16006    6.35064
       O    -7.45753  -18.14615    7.09871
      H1    -7.33564  -17.27312    7.52189
       H   -18.35483  -16.40607   -1.06719
       O   -18.50165  -17.30322   -0.79278
      H1   -17.76208  -17.69922   -0.33447
       H   -10.20334  -14.39114    9.71733
       O   -10.36969  -13.56248   10.22479
      H1   -10.80404  -13.89329   11.02446
       H   -14.50660  -17.72134   15.72242
       O   -13.61829  -17.82166   16.08042
      H1   -12.99841  -17.27316   15.49376
       H   -15.02885  -11.59642    4.14235
       O   -15.30747  -12.33441    4.68735
      H1   -15.63037  -11.95130    5.55064
       H   -17.40715  -13.22724    9.28753
       O   -17.98630  -12.48765    9.11647
      H1   -17.98658  -11.90234    9.87803
       H   -14.56343  -16.58198    7.32955
       O   -15.06958  -15.83921    6.94292
      H1   -15.58720  -15.53131    7.72689
       H   -18.07063  -18.15091   -2.36415
       O   -17.83943  -18.43673   -3.23753
      H1   -18.14059  -19.31386   -3.25958
       H   -17.03848  -16.33938   18.10555
       O   -17.43990  -17.02635   17.56216
      H1   -18.30390  -16.65841   17.33138
       H   -17.76638  -17.49805    6.16831
       O   -17.22997  -16.83483    5.69982
      H1   -16.37038  -16.69463    6.05129
       H   -11.98311  -13.13978    8.18738
       O   -11.47447  -13.27492    7.35362
      H1   -12.10062  -13.62544    6.72617
       H   -18.59345  -17.04018   13.44722
       O   -19.29873  -17.71534   13.40508
      H1   -18.97871  -18.38118   14.03095
       H   -15.44077  -10.46241    7.11950
       O   -14.82409  -11.21594    7.06284
      H1   -13.99548  -10.82560    6.68633
       H   -14.06554  -13.43091    5.35829
       O   -13.46054  -14.13845    5.65825
      H1   -14.10050  -14.67179    6.20907
       H   -10.44368  -17.57614    9.46805
       O   -11.17897  -16.95927    9.23890
      H1   -11.89589  -17.47964    8.85334
       H   -18.42206  -13.26528   16.68522
       O   -19.15045  -12.76829   16.28405
      H1   -18.66192  -11.97736   16.13902
       H   -12.68651  -18.88528   14.65888
       O   -12.09585  -19.21956   13.96097
      H1   -12.02051  -18.45661   13.34955
       H   -14.08900  -15.80480    3.05664
       O   -13.21387  -15.39021    3.26902
      H1   -13.42055  -14.95013    4.09400
       H   -17.10320  -15.73404   12.10629
       O   -16.10013  -15.84481   12.13517
      H1   -15.91394  -16.81085   12.04146
       H   -12.88398  -17.64716    0.31454
       O   -13.14304  -18.23749   -0.39530
      H1   -14.08874  -18.23415   -0.44992
       H   -17.62950  -14.51687   14.17605
       O   -17.02699  -14.68272   14.93282
      H1   -16.76826  -15.58377   14.81191
       H   -15.54870  -10.22931   13.46699
       O   -15.27975   -9.79065   14.27320
      H1   -14.93604   -9.00490   13.83305

