180
frame 11 | Written by MDAnalysis XYZWriter (release 2.4.3)
       H    -5.54239  -11.22056   20.04769
       O    -6.18361  -10.71531   19.44621
      H1    -5.89984  -11.32154   18.66877
       H    -0.94517   -6.41555   18.81241
       O    -0.24157   -5.99339   19.30220
      H1     0.01689   -5.37204   18.57799
       H     1.14570   -9.93929   14.25212
       O     0.70983   -9.24235   13.83277
      H1     0.36346   -9.49742   12.97334
       H    -6.59610  -11.82136   13.56102
       O    -5.99596  -11.73974   14.27824
      H1    -5.97534  -10.77844   14.34476
       H    -6.14265   -8.37828   12.26611
       O    -6.68154   -7.88767   11.59457
      H1    -7.58674   -8.27850   11.54948
       H    -0.75463    0.94951   15.21007
       O    -0.81443    0.46494   16.04146
      H1    -1.56342    0.93681   16.46255
       H    -4.71550   -5.71541   17.10574
       O    -5.30177   -5.73328   16.36151
      H1    -5.36598   -4.75093   16.18438
       H    -6.04130   -0.47199   10.55592
       O    -6.64725   -1.19986   10.80467
      H1    -7.44311   -0.65504   10.91271
       H   -11.74078   -4.15089   16.88151
       O   -12.15626   -3.36924   17.27334
      H1   -12.85937   -3.74718   17.91587
       H    -9.08952  -10.25312   13.85331
       O    -8.86788   -9.69813   13.05396
      H1    -9.74620   -9.48922   12.66705
       H    -4.63920  -10.47910   13.22659
       O    -4.79097   -9.49234   13.19340
      H1    -3.92768   -9.16839   13.49409
       H    -1.84082   -8.32582   17.17518
       O    -2.71061   -8.40235   17.57286
      H1    -2.66259   -9.23635   18.06586
       H    -1.85916    1.78352   13.43147
       O    -2.31696    1.11310   12.99257
      H1    -3.16991    1.09066   13.36223
       H    -2.90196  -11.84204   15.39307
       O    -2.35578  -12.37552   14.78437
      H1    -2.48742  -11.94666   13.95094
       H    -3.64335   -6.71434   18.92792
       O    -4.29123   -6.06652   19.01270
      H1    -4.94663   -6.65446   19.43236
       H     1.61247   -6.51649   19.15562
       O     2.52651   -6.76307   19.18498
      H1     2.65675   -6.87035   18.17844
       H    -9.83949   -2.16384   19.30447
       O   -10.55559   -1.57342   19.02539
      H1   -11.19568   -2.19575   18.66541
       H    -5.74674   -8.97211   15.79814
       O    -6.07722   -8.47928   16.54465
      H1    -5.77529   -7.53141   16.29287
       H    -3.09053  -11.17518   17.33755
       O    -3.78121  -11.12307   16.63183
      H1    -4.54455  -11.63283   17.04096
       H    -4.01626   -7.37468   10.32554
       O    -4.38457   -8.21064    9.94920
      H1    -5.18375   -8.22133   10.50248
       H    -1.60724   -1.56381   16.44515
       O    -2.15524   -2.31959   16.25882
      H1    -1.62777   -3.01835   16.65762
       H   -11.19092   -0.14694   14.08633
       O   -11.15369   -1.06636   14.43995
      H1   -10.56157   -1.48804   13.83409
       H    -2.47828  -12.36013   11.78014
       O    -2.49160  -11.51836   12.18920
      H1    -1.62794  -11.21435   11.94202
       H    -5.57767  -13.04183   17.04039
       O    -6.08842  -12.39315   17.50943
      H1    -6.84960  -12.23732   16.94644
       H    -7.68603   -7.48511   16.24645
       O    -8.46474   -6.89819   16.18816
      H1    -8.89275   -7.03708   17.00331
       H     0.15369   -9.93353   10.62948
       O    -0.37041   -9.52798   11.34479
      H1    -0.81231   -8.77918   10.88591
       H    -8.39451   -2.22273   12.55859
       O    -9.29313   -2.49531   12.81326
      H1    -9.06927   -3.28496   13.31760
       H    -4.30139   -1.68622   18.75039
       O    -3.94772   -1.15548   17.96797
      H1    -3.35420   -1.89238   17.58335
       H     0.08824   -3.93787   11.89788
       O    -0.82141   -3.59790   11.98315
      H1    -1.11231   -3.86063   11.06939
       H    -7.01744   -5.18496   12.62273
       O    -6.37740   -5.26138   11.94080
      H1    -6.41257   -6.14704   11.62735
       H   -12.66928   -6.99457   18.43474
       O   -11.87551   -6.56902   18.02096
      H1   -12.06076   -6.97233   17.17818
       H    -5.90362   -2.64100   15.03614
       O    -6.09086   -3.13082   15.83945
      H1    -5.82920   -2.46354   16.51819
       H   -10.61571   -7.61688   13.52164
       O   -10.47409   -6.86866   14.16198
      H1   -10.00485   -7.28908   14.92791
       H   -10.31914   -0.75435   17.12021
       O   -10.28593   -0.02743   16.53606
      H1   -10.65535   -0.42961   15.69754
       H    -2.24481   -3.04722   13.09769
       O    -3.05598   -3.03682   13.63326
      H1    -2.78509   -2.61521   14.47676
       H    -3.10062    1.28606   19.84691
       O    -2.77736    1.11087   18.93314
      H1    -3.05102    0.17972   18.83064
       H    -7.83488   -4.00701   10.36799
       O    -8.35564   -3.79795    9.57414
      H1    -8.90221   -4.61055    9.52678
       H    -5.46502   -0.19869   13.21235
       O    -5.05037    0.71415   13.06340
      H1    -5.38622    0.87890   12.20352
       H    -8.40135  -10.25854   17.81489
       O    -8.54951  -11.06887   17.30348
      H1    -8.92638  -11.61082   17.97697
       H    -2.09593  -11.20700   19.43618
       O    -2.47059  -11.99036   18.99261
      H1    -1.67557  -12.55652   19.00574
       H   -12.15814   -7.52191   14.84641
       O   -12.79390   -7.66996   15.49719
      H1   -12.98776   -8.60444   15.59731
       H    -0.27777   -4.51076   16.57233
       O    -0.25139   -4.11304   17.45403
      H1     0.55043   -3.65410   17.64719
       H    -1.35763   -9.11028   13.76278
       O    -2.23213   -8.67585   13.83156
      H1    -2.20724   -8.41461   14.75153
       H    -6.53944   -8.86585   19.79060
       O    -6.53260   -7.93679   19.41377
      H1    -6.10294   -8.11428   18.54438
       H    -7.45697   -0.26399   17.44958
       O    -6.81113   -0.70370   18.00974
      H1    -5.98182   -0.55244   17.52130
       H     0.62560   -5.17644   13.77938
       O     0.05240   -5.35362   14.49128
      H1    -0.83138   -5.37024   14.06838
       H    -9.57833  -10.97940   15.95798
       O    -9.85825  -11.03636   15.02679
      H1   -10.07647  -11.98813   14.97952
       H     0.36648   -8.30593   15.84646
       O    -0.26772   -7.72744   16.25992
      H1    -0.06666   -6.93118   15.74342
       H    -6.14230    0.39367   19.20243
       O    -5.82112    1.09853   19.84390
      H1    -6.37619    1.75648   19.46497
       H     0.50469  -10.71817   16.88693
       O     0.24745  -10.96270   17.80274
      H1     0.59808  -10.24674   18.37358
       H    -4.78351   -2.39496   13.20639
       O    -5.70534   -2.04297   13.27557
      H1    -6.00305   -1.94128   12.30056
       H    -5.49483    1.38702   14.78338
       O    -5.53157    1.58274   15.71856
      H1    -4.64131    1.72519   15.93344
       H    -4.37260   -3.97750    9.87737
       O    -4.26203   -3.11510    9.39305
      H1    -5.18777   -2.83353    9.18722
       H    -8.26058   -7.90172   19.26688
       O    -9.07120   -8.01641   18.78177
      H1    -9.63761   -8.45523   19.40358
       H    -3.02449   -5.75703   11.32189
       O    -3.86609   -5.60302   10.82149
      H1    -4.47905   -5.11320   11.43939
       H    -9.04196   -5.51586   13.88114
       O    -8.33276   -4.84987   13.99081
      H1    -7.79038   -5.22118   14.68670
       H    -8.42823   -4.65000   17.80618
       O    -8.47611   -4.84755   18.76617
      H1    -8.42029   -5.81389   18.71720
       H    -4.13677   -9.99174    9.79705
       O    -3.92806  -10.89513    9.88272
      H1    -3.64938  -10.93984   10.82839
       H    -0.77141   -6.91832   11.43361
       O    -1.71145   -7.03463   11.54421
      H1    -1.76942   -7.45878   12.43637
       H    -3.68825   -5.71555   14.79730
       O    -2.78078   -5.40642   14.67774
      H1    -2.87399   -4.50962   14.48749

