180
frame 10 | Written by MDAnalysis XYZWriter (release 2.4.3)
       H     8.17741   -0.65714   -0.08458
       O     8.52911   -1.16947   -0.83509
      H1     9.47785   -1.35896   -0.57230
       H    18.86247   -9.44072   -8.08025
       O    17.92572   -9.63599   -8.10048
      H1    17.56733   -9.10937   -7.37602
       H    10.25405   -2.69711   -2.31230
       O    11.10451   -2.43706   -2.76598
      H1    11.79274   -2.42806   -2.03024
       H    14.27511   -7.86987    4.04253
       O    13.49752   -7.59097    3.67813
      H1    13.77352   -7.03574    2.92077
       H    13.22276   -9.31077    0.13429
       O    13.39435   -8.96921   -0.75782
      H1    12.84352   -9.51628   -1.41428
       H    11.88274   -7.50718   -8.61063
       O    12.46570   -7.09446   -7.90301
      H1    13.07739   -7.74920   -7.62553
       H    17.32740   -9.70927    0.37655
       O    17.26393   -9.28789    1.26479
      H1    16.37022   -9.19158    1.55660
       H    18.86485   -4.01768    0.33038
       O    18.11324   -4.56746    0.68676
      H1    18.35593   -4.91097    1.52569
       H    18.09480   -5.99959   -3.66134
       O    18.85374   -6.48070   -3.31518
      H1    18.83894   -6.55555   -2.35479
       H    13.52901   -3.54999   -1.42341
       O    13.32689   -2.60407   -1.30983
      H1    12.82260   -2.51400   -0.50806
       H    12.03527    0.21950   -6.03315
       O    12.19443   -0.41818   -6.80552
      H1    11.55905   -0.15208   -7.50136
       H     9.27849  -10.54662   -4.45652
       O     9.82639  -11.33175   -4.46272
      H1    10.30903  -11.19436   -5.28839
       H    15.98107  -12.71296   -2.79664
       O    15.81921  -11.80545   -2.86576
      H1    16.32833  -11.68303   -3.67936
       H    14.62785  -10.48784    2.12520
       O    14.52467   -9.52216    1.94294
      H1    14.05375   -9.16494    2.65852
       H    15.69558   -1.46994   -3.80767
       O    15.94405   -0.79305   -3.11032
      H1    15.13495   -0.64684   -2.63588
       H    12.71539   -6.30654   -0.92815
       O    13.24928   -5.48264   -0.87349
      H1    13.73803   -5.56999   -0.07771
       H    11.54047   -4.60691    2.24462
       O    11.84357   -4.45925    3.13585
      H1    12.58083   -4.95265    3.43019
       H    10.47498   -7.82618    1.69032
       O     9.77033   -7.24762    1.92900
      H1     9.05184   -7.44955    1.41322
       H    14.38812    0.04407   -0.40185
       O    14.16678    0.54154   -1.19547
      H1    14.19987    1.47677   -1.01072
       H    11.51255   -1.47630    0.90180
       O    11.06720   -1.95568    0.15329
      H1    10.91415   -2.86393    0.41624
       H    11.53086   -4.36769  -10.02280
       O    11.50383   -4.73703  -10.91300
      H1    11.13881   -3.96759  -11.39119
       H    14.89418   -8.64237   -1.47614
       O    15.73711   -8.48395   -1.99086
      H1    16.04510   -7.69910   -1.51129
       H    13.51164  -10.83442   -5.78256
       O    13.72395  -11.74941   -6.04181
      H1    14.38111  -11.73117   -6.73240
       H    11.77291   -8.10457   -1.03294
       O    11.32535   -7.23568   -0.90998
      H1    11.13470   -7.00867   -1.82452
       H     8.66357   -5.53907   -4.52166
       O     9.08410   -6.30840   -4.83868
      H1     9.00373   -6.22839   -5.76968
       H    16.18793   -3.86685    2.71619
       O    15.85051   -3.62930    1.84375
      H1    16.60200   -3.77211    1.21095
       H    12.67925   -9.80782   -4.29336
       O    12.92117   -9.27222   -5.09374
      H1    13.84237   -8.97342   -4.85548
       H    15.52324   -9.54638   -8.06010
       O    15.15515   -8.83325   -7.48060
      H1    15.57441   -8.93495   -6.62636
       H    12.81136   -0.05435   -2.00454
       O    11.89819    0.05035   -2.38054
      H1    11.61377   -0.85275   -2.54605
       H    17.02558   -4.30838   -3.23898
       O    16.75126   -4.80612   -4.00604
      H1    15.87794   -5.22061   -3.84847
       H    15.77622   -8.11583   -3.81906
       O    15.66296   -8.13637   -4.76810
      H1    15.18155   -7.29835   -5.01720
       H    11.44892   -4.88366   -0.10939
       O    10.85827   -4.61180    0.60928
      H1    10.10186   -5.24577    0.64774
       H    12.49298   -3.00322    2.57238
       O    12.85026   -2.12397    2.30655
      H1    12.52214   -1.52813    3.02122
       H    16.22318   -1.78802   -9.23966
       O    16.00064   -1.13890   -9.94729
      H1    15.13805   -1.47100  -10.20016
       H    12.53742    1.96308   -4.80022
       O    11.68712    1.47887   -4.84164
      H1    11.63456    0.90377   -4.06955
       H     9.39051   -8.06586   -7.16531
       O     8.99253   -7.21326   -7.48912
      H1     9.41222   -6.96539   -8.29951
       H    18.22657   -2.15041   -1.85072
       O    17.47296   -2.70061   -1.97962
      H1    16.99581   -2.10633   -2.55601
       H    13.41512   -5.76972   -8.35055
       O    14.23864   -5.39867   -8.77577
      H1    14.25750   -4.42554   -8.66416
       H    15.26266   -6.22090    1.00033
       O    14.48620   -5.80570    1.53446
      H1    14.89900   -4.93998    1.79712
       H    12.32102   -3.54149   -6.08394
       O    12.89576   -3.02655   -6.64383
      H1    12.65191   -2.06514   -6.55585
       H    15.47313   -1.54707    1.27959
       O    15.08005   -0.61709    1.23842
      H1    14.25617   -0.73344    1.70857
       H    11.99453   -3.40833   -8.00640
       O    11.37007   -3.45726   -8.73118
      H1    10.58253   -3.00719   -8.44396
       H    16.10099   -8.65430  -11.52082
       O    15.99284   -8.07328  -10.74615
      H1    15.48764   -8.58352  -10.09797
       H    18.53444    0.95219   -4.24734
       O    17.64431    1.02588   -4.50084
      H1    17.16564    0.39304   -3.92486
       H    14.06627   -5.70691   -2.74843
       O    14.11287   -5.56503   -3.74416
      H1    13.27842   -5.13586   -3.91341
       H    19.56445   -6.61472   -8.58121
       O    18.64977   -6.83704   -8.35205
      H1    18.60509   -7.74717   -8.60882
       H    14.70390   -2.69815   -5.61392
       O    15.55005   -2.71727   -5.10313
      H1    15.76881   -3.61194   -4.86342
       H    14.04804   -6.13978  -10.88039
       O    13.33682   -6.49781  -11.54958
      H1    12.64578   -5.87097  -11.39924
       H    16.95011   -9.81580   -4.72589
       O    17.65105  -10.47505   -4.95075
      H1    18.45060  -10.03139   -4.51152
       H     9.53639   -7.48730   -0.40460
       O     8.58467   -7.72299   -0.38826
      H1     8.14463   -6.90217   -0.61010
       H    17.10184   -6.02026    0.43283
       O    16.60141   -6.81233    0.22143
      H1    17.08415   -7.50656    0.75766
       H    11.42498   -9.10588   -5.90408
       O    10.68308   -9.25693   -6.51796
      H1    10.80470  -10.16152   -6.84718
       H    11.29759   -3.79873   -3.78055
       O    11.55589   -4.58534   -4.32922
      H1    10.80632   -5.23848   -4.26400
       H    16.65067   -2.91587   -6.37156
       O    17.19085   -3.12768   -7.17547
      H1    17.10572   -4.09473   -7.31206
       H     8.23493   -8.69392   -3.73696
       O     7.73377   -9.48191   -4.10023
      H1     7.16221   -9.85027   -3.39412
       H    12.39451  -11.36809   -2.61305
       O    11.96908  -10.52822   -2.86088
      H1    11.11516  -10.68948   -3.28056
       H    17.23951  -10.71166   -1.78210
       O    17.92877  -10.76538   -1.10949
      H1    18.09891  -11.67726   -1.00154
       H     6.62450   -4.54642   -4.80342
       O     7.39810   -3.94749   -4.72181
      H1     7.16573   -3.05949   -5.09211
       H    17.12016   -6.22814   -7.38220
       O    16.29164   -5.80786   -7.13145
      H1    15.68277   -5.98823   -7.85753
       H    11.52841   -7.93992   -4.24861
       O    10.90151   -7.73193   -3.56118
      H1    10.24734   -7.26532   -4.05549

