180
frame 6 | Written by MDAnalysis XYZWriter (release 2.4.3)
       H     5.99803    3.46809   18.12910
       O     5.72683    4.27963   17.59747
      H1     5.19928    4.82918   18.15699
       H     5.45234   10.95741   14.50121
       O     6.27056   11.38306   14.26656
      H1     6.00458   12.25398   13.95177
       H     2.93824   11.91537   19.56620
       O     2.39479   12.59267   19.10456
      H1     3.07907   13.20052   18.76965
       H     3.61836    8.44503   15.75155
       O     3.03585    9.21622   15.69416
      H1     2.28866    8.79900   15.27279
       H    14.90448    9.77604   17.78431
       O    15.21607   10.20139   18.61322
      H1    16.12210   10.38790   18.43018
       H    11.97020   13.29073   11.51551
       O    11.08467   13.50864   11.16254
      H1    10.50797   13.52278   11.89997
       H     9.18581   10.61545   10.19000
       O     8.85506   10.22126   11.00090
      H1     7.89715   10.33841   10.98149
       H    11.69660   14.69957   17.38944
       O    12.66943   14.57702   17.31315
      H1    12.89041   15.47432   17.67753
       H     8.84732   10.91082   17.15635
       O     8.10732   11.52077   17.12187
      H1     8.06158   11.64114   18.09885
       H     3.87497   16.98064   15.47929
       O     4.74743   17.21781   15.70331
      H1     4.89960   18.06466   15.21033
       H     2.63723   10.57806   14.70073
       O     2.35316   11.30073   14.06762
      H1     1.40577   11.34073   14.31684
       H     4.95894   10.38711   16.97321
       O     5.65979    9.64357   17.09819
      H1     6.51107   10.08466   17.27148
       H     2.89590   11.02310   12.51134
       O     3.39367   11.05777   11.64426
      H1     3.29177   10.10608   11.44260
       H     3.60414    8.52060    9.75531
       O     3.12323    8.43307   10.64410
      H1     3.75635    8.10810   11.26223
       H    10.20736    7.70408   13.13188
       O     9.52160    8.15616   13.63640
      H1     9.82004    9.06781   13.64263
       H     6.85255   14.85576   19.21096
       O     7.46117   15.29467   19.78971
      H1     8.27944   15.29758   19.22410
       H     9.49039   18.79614   16.47443
       O     9.73898   17.91356   16.83784
      H1    10.67621   17.89493   16.56035
       H     9.67960   10.76878   19.79840
       O    10.34778   10.90106   19.11786
      H1    10.23452   11.80336   18.85084
       H     5.97386    7.89439   12.52546
       O     5.01307    7.74830   12.58410
      H1     5.04417    6.76994   12.46626
       H    14.11177    8.19987   17.42900
       O    14.09712    8.81205   16.66654
      H1    13.27997    9.30380   16.83138
       H     9.79394   10.52995   12.52122
       O    10.39046   10.64099   13.28984
      H1    11.31092   10.53696   12.93201
       H    14.69490    7.41057   13.96955
       O    13.70619    7.37393   14.07120
      H1    13.57938    7.63095   14.99339
       H    13.00494   10.01399   11.77552
       O    12.33292    9.56478   11.26186
      H1    12.10704   10.19499   10.56279
       H    12.48499   16.24469   11.34831
       O    11.55193   16.21428   11.02992
      H1    11.40169   15.24067   11.21021
       H     9.84249   16.63146   11.91287
       O     9.01713   16.99192   12.37422
      H1     9.34812   17.52062   13.10404
       H    11.27494   14.59364   15.21424
       O    11.37883   14.30778   14.36386
      H1    10.49948   14.50263   14.04857
       H     7.77751    7.55461   10.85065
       O     7.77245    7.08887   11.68171
      H1     8.41628    7.54011   12.22607
       H     2.69974    5.79001   15.23706
       O     3.40525    5.73104   14.54743
      H1     4.12686    6.00530   15.18904
       H    12.76202    6.93003   12.76503
       O    11.94299    6.96629   12.24106
      H1    11.98887    7.87227   11.89914
       H     8.08180   14.18500   12.75847
       O     8.91124   14.34695   13.21073
      H1     8.87403   15.31655   13.03970
       H    13.32956   17.49182   17.58797
       O    13.67284   16.89804   18.34934
      H1    14.68773   16.84160   18.22051
       H     2.96415    6.73334   19.19034
       O     2.14215    6.16525   19.06858
      H1     1.66575    6.15579   19.89695
       H     9.75452    8.78676   15.67668
       O    10.05184    9.42234   16.42501
      H1     9.93124    8.90343   17.26615
       H     1.95675    7.79086   18.73108
       O     1.71044    8.72319   18.39441
      H1     1.85811    8.61656   17.45653
       H    12.38960   11.23239   15.53224
       O    12.23175   10.90338   16.39287
      H1    11.44816   10.29925   16.33163
       H     4.17634   15.63209   12.93685
       O     5.08992   15.80591   13.29531
      H1     5.22649   16.68478   12.95401
       H     4.13325   15.30659   18.90861
       O     4.47569   14.53444   18.46712
      H1     5.10568   14.85012   17.82756
       H     8.89445   17.61993   20.15096
       O     8.41087   18.11302   19.52299
      H1     8.78513   17.76338   18.68626
       H    13.55166   13.43619   18.15246
       O    14.02337   12.66208   18.60995
      H1    14.25023   12.12549   17.90707
       H     9.96882   16.12812   17.34324
       O     9.97105   15.26686   17.79648
      H1     9.46188   14.75730   17.14882
       H     5.65550    8.15848   15.84477
       O     5.58335    7.25237   15.46639
      H1     5.44700    7.45742   14.51070
       H    16.04882   12.11398   15.28412
       O    16.04844   12.71668   16.09778
      H1    15.37319   13.36332   15.88597
       H    10.53198    6.03103   14.58390
       O    10.40782    5.24804   15.04680
      H1     9.61649    5.44589   15.57433
       H     5.42505   15.34494   15.38636
       O     5.53368   14.50889   15.89204
      H1     6.53080   14.50512   15.81776
       H    11.66363    4.17402   17.82993
       O    11.49443    3.55698   17.06357
      H1    11.28166    4.13263   16.33161
       H     6.38399   12.02718   10.12947
       O     6.33981   12.16670    9.19328
      H1     5.67761   12.86927    9.04289
       H     3.41467   12.34361   15.80593
       O     4.03656   12.08383   16.49987
      H1     4.65436   12.83915   16.46728
       H     1.46268   11.86755   17.29843
       O     0.64354   12.13464   16.84921
      H1     0.58099   13.07118   16.99377
       H    12.32812   12.88849   13.95374
       O    12.88783   12.06947   13.89550
      H1    13.72844   12.43084   14.11263
       H     7.01155    5.23225   14.27099
       O     6.41556    5.17923   13.50141
      H1     6.88455    5.53018   12.78206
       H     7.68067   14.41532   10.21791
       O     8.09089   15.25068   10.19262
      H1     8.64724   15.16296    9.39851
       H     5.31422   10.50686   11.68141
       O     6.28091   10.53301   11.74208
      H1     6.41658   10.79492   12.69376
       H     4.95108    8.63370   18.54232
       O     4.55834    7.83914   19.03241
      H1     5.33387    7.65113   19.59669
       H    13.66030   14.34036   15.48521
       O    14.28481   14.52588   14.70806
      H1    14.39714   15.48069   14.79688
       H     5.11243   12.99506   11.94777
       O     5.85556   13.50812   12.32164
      H1     5.46811   14.22856   12.80090
       H     7.06396    6.29679   15.97931
       O     7.52930    5.46108   16.13305
      H1     6.90658    5.01688   16.71263
       H    10.82304   12.39555    9.99579
       O    10.69511   11.57810    9.37281
      H1    11.55676   11.62530    8.87460
       H     8.42255   13.99833   14.98381
       O     8.22666   13.94245   15.91977
      H1     8.17439   12.99797   16.08874
       H    11.06931    8.49986   19.42845
       O    10.93703    7.94453   18.64343
      H1    11.27623    7.09959   18.96772
       H    11.75396    5.37195   20.01692
       O    11.85835    5.39534   19.04919
      H1    12.61786    5.98040   18.86191

