180
frame 5 | Written by MDAnalysis XYZWriter (release 2.4.3)
       H    16.83472  -17.27266    3.68605
       O    16.35649  -17.36539    2.83035
      H1    15.47130  -17.23242    3.13696
       H     8.27747  -15.61050    5.09746
       O     8.68540  -14.93462    5.74205
      H1     9.55016  -14.72255    5.20758
       H     7.52425  -13.36129    2.43095
       O     8.33388  -12.90971    2.20972
      H1     8.28801  -12.26135    2.92041
       H     9.76164   -8.29509    9.84585
       O    10.12766   -7.43470    9.47354
      H1    10.30821   -6.89808   10.23114
       H    10.78286  -16.83784    7.12043
       O     9.83426  -16.85077    7.38608
      H1     9.44008  -16.22249    6.74170
       H    16.98145  -13.96253    6.35744
       O    17.21659  -13.96341    7.28917
      H1    18.18809  -13.96413    7.18024
       H    12.20380  -13.75466    0.59588
       O    13.06302  -13.33845    0.90548
      H1    12.69038  -12.44248    1.15569
       H    18.50381  -14.54845   10.20639
       O    19.24156  -13.94836   10.10091
      H1    18.76620  -13.11611   10.19394
       H     8.52791  -10.38247    4.46311
       O     7.85920  -11.10707    4.30907
      H1     7.21187  -10.60135    3.83570
       H    15.65689  -13.66014   12.81013
       O    15.91953  -14.34808   12.18526
      H1    16.44094  -13.83905   11.57159
       H    11.94979   -9.92347    9.28854
       O    11.76198  -10.36202    8.40016
      H1    10.88989  -10.70499    8.61913
       H    14.77195  -17.01913    6.13200
       O    14.96955  -17.95956    6.28731
      H1    14.37584  -18.22036    6.91016
       H    10.64745  -16.90948    0.13938
       O    10.53204  -16.59237    1.05140
      H1    10.47986  -15.63410    0.81583
       H    14.17184  -12.03378   12.70333
       O    14.35513  -12.53752   13.50356
      H1    13.45769  -12.89888   13.70067
       H    16.66625  -14.68330    0.93482
       O    17.16488  -14.75822    1.78459
      H1    16.72901  -15.52455    2.18616
       H    11.04197  -16.04115   11.59139
       O    10.93158  -15.52128   12.43801
      H1    11.83584  -14.97531   12.50475
       H    13.61197  -10.42410    8.17109
       O    14.43840  -10.88855    8.02966
      H1    14.92817  -10.16896    7.61838
       H    13.38437  -14.55863    2.12520
       O    13.47062  -15.41198    2.56211
      H1    13.64168  -16.08440    1.85030
       H    17.63349  -19.35584   10.12441
       O    18.20923  -18.97653    9.38609
      H1    17.73076  -18.18926    9.06149
       H     9.22787   -8.85462    5.97596
       O     9.75285   -9.65864    5.76779
      H1    10.67137   -9.35339    5.83327
       H     9.33824  -10.58411   10.68719
       O     9.06489   -9.65437   10.66615
      H1     8.20046   -9.65198   10.13054
       H    19.38246  -11.15849    8.75949
       O    18.59341  -11.01753    8.15761
      H1    18.35600  -10.07512    8.29371
       H    11.50916  -11.06866    2.68912
       O    11.92887  -11.01137    1.83901
      H1    11.26882  -10.50305    1.33668
       H    17.70696   -7.76611    7.32232
       O    18.13580   -8.13362    8.13892
      H1    19.05364   -7.87731    7.89403
       H     7.84254  -13.37492    6.31415
       O     7.13570  -12.70958    6.34175
      H1     7.41787  -12.14501    5.60486
       H    17.55812  -15.73836    8.24717
       O    17.39202  -15.92080    9.18739
      H1    16.45695  -15.76733    9.35211
       H    13.27820  -13.51485   10.95967
       O    13.14982  -14.43939   11.19086
      H1    14.02106  -14.69455   11.52570
       H    14.41417  -14.64585    5.75617
       O    14.68062  -15.41058    5.19711
      H1    14.06556  -15.37608    4.44835
       H    12.51995   -7.08225    5.68449
       O    12.64042   -7.87195    5.15301
      H1    12.39547   -7.46825    4.30941
       H    13.18874  -18.93403    3.72275
       O    13.45456  -18.02815    4.01298
      H1    13.99993  -18.16364    4.78504
       H    17.70701  -19.43771    5.37765
       O    17.81062  -18.61098    5.87753
      H1    16.87820  -18.42634    6.16351
       H     8.52181  -11.95541    7.56237
       O     8.91133  -11.16518    8.01357
      H1     9.28280  -10.63331    7.27029
       H     8.43302  -15.36965   10.55010
       O     7.68634  -14.77188   10.80323
      H1     7.34026  -15.26592   11.56634
       H    15.83593  -11.43484   13.92161
       O    16.74498  -10.98361   13.85183
      H1    16.75164  -10.61600   12.91816
       H    13.81203  -14.88436    8.35464
       O    13.93249  -15.75748    8.80766
      H1    13.62127  -15.51651    9.72532
       H    12.75758   -8.18353   10.47823
       O    12.12801   -8.81182   10.91294
      H1    11.35117   -8.28194   10.97233
       H    15.35577  -14.73616   -1.19494
       O    15.30541  -14.21097   -0.44829
      H1    14.39419  -14.04791   -0.24955
       H    12.92354  -16.44912    7.44864
       O    12.31281  -17.02379    6.94431
      H1    12.19941  -17.64733    7.67163
       H    12.37218  -18.39341    9.79966
       O    11.51176  -18.37977    9.39585
      H1    11.12294  -17.53219    9.68200
       H    14.05302   -7.24982    9.05325
       O    14.52254   -7.43786    9.82586
      H1    14.53908   -6.60144   10.27457
       H    11.24594  -15.06291    4.19003
       O    11.34611  -14.28602    4.80585
      H1    11.70630  -13.60835    4.24667
       H    10.99598  -16.88726    2.86690
       O    11.05446  -16.89105    3.83564
      H1    11.91683  -17.29601    3.97926
       H    15.70877  -10.69396   10.91921
       O    15.78254   -9.98836   11.58346
      H1    14.91733   -9.52846   11.48742
       H    11.92471   -5.90440    7.72243
       O    12.21015   -6.80961    7.80133
      H1    11.56651   -7.20502    8.42065
       H     9.21748  -12.68277   11.02448
       O     9.84922  -12.17703   10.49733
      H1     9.49231  -12.35664    9.65046
       H    13.56968  -12.52691    7.27937
       O    13.72540  -13.45036    7.01130
      H1    13.07511  -13.53457    6.31409
       H    14.31042  -11.85604   10.47939
       O    13.56989  -11.87531   11.04417
      H1    12.84602  -11.46855   10.49910
       H     9.70023  -19.64418    6.09849
       O     9.91554  -19.86408    7.04190
      H1     9.92997  -18.98931    7.39995
       H     9.64387  -13.66675    1.29436
       O    10.22868  -13.89798    0.50530
      H1     9.61486  -13.89831   -0.27883
       H     9.07315  -17.13174   10.24557
       O     9.59893  -16.37708    9.98607
      H1     9.60335  -16.52781    9.01252
       H    16.67572  -12.88525    9.38304
       O    16.85716  -12.14106    9.97930
      H1    17.49507  -11.59274    9.46226
       H    13.89477  -10.39834    1.61902
       O    14.82722  -10.35121    1.94669
      H1    15.29918  -10.99807    1.45765
       H    18.32710  -11.73060    6.38443
       O    18.75940  -11.80159    5.52281
      H1    18.17996  -12.54100    5.16560
       H    15.97583   -9.89785    3.44082
       O    16.40891   -9.32039    4.11017
      H1    17.03235  -10.01844    4.42627
       H    17.73445  -12.23575    1.01820
       O    17.15965  -11.51696    0.91281
      H1    17.77163  -10.82571    1.01627
       H    18.79484  -17.15746    4.55565
       O    18.90706  -16.21106    4.33533
      H1    19.25743  -15.89433    5.18680
       H    17.12940  -13.82186    3.57802
       O    16.72675  -13.53364    4.39731
      H1    16.22935  -14.30059    4.65121
       H    13.97663  -19.15628   10.10053
       O    13.72064  -18.77449   10.93771
      H1    13.18411  -19.52534   11.32296
       H    15.56034   -9.02831    6.00601
       O    15.49257   -8.74950    6.94550
      H1    14.58937   -8.34821    6.89007
       H    10.51327  -18.97034    4.07863
       O     9.55240  -19.24275    4.35968
      H1     9.14550  -18.36818    4.39235

