180
frame 3 | Written by MDAnalysis XYZWriter (release 2.4.3)
       H    -5.78126  -10.28827   18.93936
       O    -6.49774  -10.62519   18.33836
      H1    -5.91569  -11.36211   17.93492
       H    -9.43890  -18.81567   14.56606
       O    -9.96208  -19.00487   15.39961
      H1    -9.24728  -19.42160   15.90107
       H    -8.37850  -11.53136    8.14068
       O    -8.07607  -12.16004    8.85047
      H1    -8.57092  -11.85577    9.61503
       H   -10.39777  -10.43651   11.50074
       O   -10.20061  -10.72110   10.62969
      H1   -10.91950  -11.14799   10.21712
       H   -14.19332   -9.56478   10.72682
       O   -13.24190   -9.50700   10.54955
      H1   -13.04562   -8.55961   10.48640
       H    -8.56520  -10.20537   14.32236
       O    -8.12658   -9.35124   14.31246
      H1    -7.32706   -9.66539   13.80337
       H    -8.63971   -7.59691   12.50893
       O    -7.89787   -7.69632   11.88236
      H1    -8.35251   -7.45442   11.04693
       H    -6.83201  -13.34021   10.81673
       O    -6.87472  -14.15660   11.37638
      H1    -6.36878  -14.81685   10.79471
       H   -11.93749  -16.20318   18.02428
       O   -11.88582  -16.39770   18.97312
      H1   -12.72834  -16.06661   19.26969
       H   -13.60613  -12.06357   15.20546
       O   -14.22261  -11.69086   14.55492
      H1   -14.50643  -12.55172   14.06356
       H    -5.83967  -14.35945   12.65073
       O    -5.41934  -14.74533   13.48559
      H1    -6.02783  -15.44530   13.67482
       H   -13.42710  -13.28377   17.70281
       O   -13.09573  -13.61222   16.88418
      H1   -12.12332  -13.63373   17.04315
       H    -9.15191   -7.76557   14.15163
       O    -9.65035   -7.01771   13.78131
      H1   -10.52819   -7.42891   13.59347
       H    -6.09411   -9.44888   12.21717
       O    -5.82040   -9.94864   12.94086
      H1    -5.01744   -9.56364   13.33635
       H    -3.44403   -8.39419   16.44131
       O    -3.99314   -9.15975   16.70984
      H1    -4.89568   -8.84642   16.40979
       H    -9.60087  -19.69184   12.61654
       O    -9.42522  -18.72550   12.77677
      H1   -10.14327  -18.25334   12.22668
       H   -16.71643  -13.98613   17.71427
       O   -16.24900  -13.38943   17.05928
      H1   -15.42243  -13.84334   16.91028
       H    -4.46415  -13.11727   16.13530
       O    -3.85429  -13.23056   15.37866
      H1    -4.56056  -13.31918   14.67710
       H    -8.01088   -6.79454   16.25036
       O    -8.76911   -6.18464   16.32240
      H1    -9.22321   -6.36351   15.40803
       H    -6.73302   -9.12290   17.28981
       O    -6.73825   -8.42505   16.56970
      H1    -7.18912   -8.88343   15.83328
       H   -13.05553  -11.36035   10.83604
       O   -12.64727  -12.07074   11.32633
      H1   -13.09770  -12.88688   11.09125
       H    -5.44129  -13.51426   17.44864
       O    -4.99963  -12.71499   17.84447
      H1    -4.24189  -13.03130   18.34629
       H   -10.47701   -7.17466   16.82203
       O   -11.22878   -7.72264   16.82993
      H1   -10.77972   -8.45965   17.24475
       H   -12.79994   -5.65159   10.39511
       O   -13.19483   -6.52523   10.51190
      H1   -13.74309   -6.71664    9.74547
       H   -10.43192  -15.48476    9.72358
       O   -10.72512  -16.30468    9.25451
      H1   -11.34138  -15.87054    8.63378
       H   -16.60521  -10.63867    9.98377
       O   -16.04329  -10.40504   10.72522
      H1   -16.29783  -11.07476   11.40072
       H   -16.42106  -11.66037   18.22226
       O   -16.58663  -11.04916   18.95262
      H1   -17.07675  -11.65145   19.53685
       H   -14.38647   -5.26901   17.70434
       O   -13.49703   -5.07488   17.38354
      H1   -13.06460   -5.91156   17.65470
       H    -6.18583   -5.32352   13.29351
       O    -6.02711   -5.44788   12.35050
      H1    -6.63753   -6.09521   11.99833
       H    -4.20579  -16.45233   16.47280
       O    -3.46796  -15.90275   16.20571
      H1    -3.96128  -15.17198   15.83796
       H   -11.27612  -17.43646   10.65609
       O   -11.49959  -17.78253   11.55063
      H1   -11.69366  -16.99950   12.07337
       H   -15.53431   -9.31469   16.43047
       O   -15.17309  -10.16702   16.67415
      H1   -15.06156  -10.65885   15.88970
       H   -14.57528   -8.37095   18.55112
       O   -13.74431   -7.94575   18.24306
      H1   -13.66252   -8.35166   17.30058
       H    -8.92463  -16.05503   13.45651
       O    -9.48260  -15.24057   13.66810
      H1    -9.52332  -14.78641   12.81837
       H   -12.91683   -8.37748   13.73279
       O   -12.51480   -7.54147   14.05472
      H1   -12.14251   -7.93877   14.88827
       H   -14.09964  -17.84910   11.03070
       O   -14.45470  -17.12922   11.58356
      H1   -15.29787  -16.93285   11.16495
       H   -11.99982  -13.72844   13.74624
       O   -11.57144  -12.90098   13.90620
      H1   -12.06407  -12.27331   13.41022
       H   -13.30249  -15.29222   11.04295
       O   -13.44185  -14.47768   10.54215
      H1   -14.00293  -14.91826    9.89909
       H   -12.51984  -16.44740   13.94577
       O   -12.14848  -15.80082   13.36813
      H1   -11.23986  -15.74280   13.78793
       H   -10.04116  -13.15125   16.27210
       O   -10.49380  -13.27766   17.13548
      H1   -10.64845  -12.37857   17.49579
       H    -3.06651   -9.61244   19.43760
       O    -3.70157  -10.36908   19.36637
      H1    -3.84815  -10.32910   18.38817
       H    -3.70872  -15.24842   13.61378
       O    -2.81156  -15.56128   13.65024
      H1    -2.86013  -15.71564   14.57501
       H    -9.04550  -14.75041   19.35951
       O    -9.21829  -13.80717   19.45480
      H1    -9.51664  -13.57852   18.58817
       H   -13.59750   -5.76775   14.23228
       O   -13.98344   -4.87506   14.40005
      H1   -13.88571   -4.73950   15.37420
       H   -13.17466  -10.01822   12.30745
       O   -12.86139  -10.00646   13.23630
      H1   -13.42263  -10.77739   13.55483
       H    -9.49060   -8.43088    9.72377
       O    -9.30499   -7.49742    9.43585
      H1   -10.14320   -7.24586    8.98027
       H   -15.26317  -15.99698   18.09661
       O   -15.64647  -16.69263   17.53140
      H1   -14.96935  -16.91577   16.88235
       H   -16.92552  -12.07445   15.85252
       O   -17.47215  -11.27712   15.65183
      H1   -16.81789  -10.58023   15.92021
       H   -10.38088  -15.93040   15.69057
       O   -11.16611  -16.46517   15.91132
      H1   -10.97167  -17.39539   15.72519
       H   -15.11318  -14.96589   12.90233
       O   -14.66508  -14.06057   13.05177
      H1   -14.16690  -13.95698   12.20593
       H   -10.04647  -11.95160   14.56456
       O    -9.09496  -11.88060   14.49831
      H1    -8.78467  -12.79671   14.22372
       H   -11.12182  -13.73480   11.11464
       O   -10.29308  -14.23387   10.93784
      H1    -9.62504  -13.55707   10.90752
       H   -16.55789  -13.40203   12.96329
       O   -16.98159  -12.53241   12.95125
      H1   -16.76178  -12.07546   13.76644
       H    -6.84919  -17.69807   13.19700
       O    -6.88760  -17.21605   14.02443
      H1    -6.48033  -17.94171   14.58462
       H   -13.58804  -12.07084   19.63037
       O   -14.37804  -12.48714   19.28420
      H1   -15.00530  -11.77879   19.15287
       H   -13.21950  -10.57736    7.27868
       O   -12.34574  -10.92824    7.37664
      H1   -11.80513  -10.41167    7.99976
       H    -9.48449   -9.84742   18.20255
       O   -10.31760  -10.08901   17.82128
      H1   -10.87301  -10.30480   18.60575
       H    -6.83684  -15.67470   16.59988
       O    -6.35083  -15.08532   17.15514
      H1    -6.18775  -15.68739   17.93243
       H    -9.09655   -3.65530   12.54278
       O    -9.84109   -4.16843   12.92349
      H1    -9.40239   -5.00526   13.11007
       H    -5.12704  -12.02408   10.23250
       O    -5.81938  -11.60934   10.71644
      H1    -5.56076  -11.46076   11.66044

