180
frame 10 | Written by MDAnalysis XYZWriter (release 2.4.3)
       H     4.31171   17.55337   18.60783
       O     5.09728   17.19932   18.14909
      H1     4.77886   17.34715   17.26661
       H     9.86089   13.70110   11.34540
       O    10.10332   13.63166   10.39427
      H1     9.15659   13.54525   10.00642
       H    12.17389   13.09643   17.99428
       O    13.15357   13.23660   18.11046
      H1    13.22187   14.17930   18.36083
       H     4.39510   17.74484   13.71607
       O     4.38258   17.88557   14.68980
      H1     5.07569   18.57424   14.86933
       H     6.95249   14.92482   18.81664
       O     7.65610   15.22188   19.35233
      H1     8.46052   14.83034   18.91651
       H    10.30972   18.39731   15.32148
       O    10.09682   17.45349   15.51762
      H1    10.93701   17.19747   15.90244
       H    11.68511   18.71379   13.31705
       O    11.88826   18.53634   12.39607
      H1    12.15044   17.64887   12.24949
       H    14.71186   10.48739   13.26422
       O    15.45346   10.11033   13.75229
      H1    16.15265   10.01035   13.08229
       H    19.04275   17.34265   11.62491
       O    18.21631   17.03623   11.27259
      H1    18.51068   16.65415   10.40604
       H     5.40307   17.17670   11.38359
       O     5.32510   17.97235   11.95827
      H1     5.99686   18.51636   11.55513
       H    12.87118   18.74511    4.12930
       O    13.47535   18.84297    4.89585
      H1    13.04668   19.39797    5.53450
       H    15.51921   13.34091   11.87063
       O    14.58062   13.38646   11.68686
      H1    14.61875   13.37847   10.67478
       H    10.71523    9.66488   12.92520
       O    11.09385    9.53597   13.78688
      H1    11.76964   10.23238   13.91203
       H    16.93639   16.44537    8.44877
       O    17.81908   16.06308    8.57149
      H1    18.45659   16.52636    7.94461
       H    13.07638   11.44995   13.54974
       O    13.26662   10.97853   12.66780
      H1    13.74180   11.61145   12.10696
       H    12.60596   16.38549   10.39340
       O    11.65592   16.12473   10.42196
      H1    11.64491   15.19723   10.47653
       H    10.22312   16.66320   11.43810
       O     9.29969   16.83299   11.69224
      H1     9.37736   17.32323   12.54440
       H    11.61812   14.58860   15.38922
       O    11.29668   14.05047   14.66296
      H1    10.50098   14.56253   14.39711
       H    18.07952   15.85579   13.27202
       O    17.62708   15.67577   14.13986
      H1    18.36511   15.22925   14.63713
       H    16.90946   17.06722   17.84219
       O    17.68762   17.55593   17.65492
      H1    17.82028   18.03891   18.50238
       H     8.37049   13.71697   12.48944
       O     8.99565   14.34826   12.77867
      H1     8.69864   15.12038   12.30986
       H    13.07066   16.19444   17.57753
       O    13.03614   15.88702   18.45567
      H1    13.91748   15.97583   18.85625
       H     8.89261   13.80941    7.03817
       O     9.10263   14.75974    7.20316
      H1     8.39132   15.28599    6.86316
       H    15.67916   18.82820   12.00499
       O    15.91230   18.49289   11.14160
      H1    16.77132   18.12276   11.40116
       H    14.60981   15.68677   11.14221
       O    14.17134   16.48917   10.78535
      H1    14.74899   17.24912   10.98149
       H    11.18451   12.29202   16.29915
       O    10.55013   12.46656   17.05866
      H1     9.68030   12.14426   16.63805
       H     5.96662   16.11684    6.67795
       O     6.86027   16.16873    6.27978
      H1     6.78021   15.56495    5.58385
       H    13.12687   18.72050    8.55835
       O    13.76567   19.33911    8.99575
      H1    14.55265   18.85804    8.86006
       H     9.25842   17.20666   18.03293
       O     9.34755   18.09410   18.34800
      H1     9.30452   18.72228   17.64229
       H     9.88284   11.58198    7.79075
       O     9.17592   12.09662    7.26377
      H1     8.40893   11.53900    7.53491
       H     9.59831   18.83109    9.36084
       O     9.14727   17.98871    9.28606
      H1     9.17813   17.65412   10.23677
       H     6.26645   17.25478    8.95579
       O     6.47514   18.20645    9.02428
      H1     7.41619   18.13309    8.77699
       H    10.93952   17.74129    4.81750
       O    11.12106   17.38726    3.92542
      H1    11.17156   16.48347    4.19947
       H     9.10477   15.11916   16.73856
       O     9.66211   15.17098   17.53845
      H1    10.22612   14.36140   17.49254
       H    17.67814   14.17181   11.69777
       O    17.21485   13.31038   11.61088
      H1    17.22799   13.18099   10.65481
       H    16.42468   11.41160   14.75579
       O    17.12759   11.64454   15.43537
      H1    16.54077   12.07370   16.12477
       H     4.84101   16.12212   15.43132
       O     5.21802   15.22892   15.41317
      H1     6.17479   15.25060   15.59751
       H     7.66009   18.62675   18.56308
       O     6.85273   19.01756   18.18581
      H1     6.17431   18.28592   18.26712
       H    12.97331   17.64108   16.31147
       O    12.74028   16.78369   15.96821
      H1    13.54348   16.51658   15.44220
       H    14.68998   17.47480    5.29798
       O    15.27563   16.66449    5.52150
      H1    14.84386   16.01560    4.95890
       H     4.35936   12.32623   13.91334
       O     5.29881   12.48536   14.17249
      H1     5.19797   13.38764   14.41211
       H    11.73833   19.47079   17.50852
       O    12.72073   19.30132   17.54177
      H1    12.82117   18.95125   18.43127
       H    16.16032   18.25073   15.63766
       O    15.23051   18.09202   15.70384
      H1    14.94221   18.57997   14.88186
       H    11.55167   17.50531    8.67140
       O    11.99165   17.51053    7.76670
      H1    11.17430   17.69429    7.30074
       H    12.22146   12.59777   14.68363
       O    12.37949   11.70088   15.09585
      H1    13.16662   11.89925   15.68551
       H     8.82878   17.97551    6.67242
       O     9.68481   18.27245    6.31986
      H1     9.67345   19.21093    6.48084
       H    13.65129   15.18718    6.47586
       O    13.06620   14.86193    7.15419
      H1    12.67812   15.61765    7.55023
       H    14.25393   11.94551    8.67390
       O    13.75607   11.10728    8.60279
      H1    14.19904   10.79853    7.71693
       H    10.27489   14.74032    6.08867
       O    10.92907   14.68971    5.34013
      H1    11.69548   14.36454    5.79675
       H    16.18658   15.64196   19.46595
       O    15.69302   15.47944   18.64114
      H1    15.88946   14.56287   18.51600
       H     7.27736   13.22379    8.74391
       O     7.60442   13.77775    9.47297
      H1     8.17038   14.35396    8.96248
       H     5.14596   15.06666    9.39632
       O     5.26327   15.64941   10.18616
      H1     6.11578   15.28087   10.43074
       H    15.86373   13.50472    8.48756
       O    15.13963   13.45482    9.10034
      H1    14.60396   14.06188    8.56184
       H    14.15973   13.18910   16.74899
       O    14.64688   13.07012   15.88613
      H1    14.56357   13.97775   15.53211
       H    13.71977   15.19061   13.66086
       O    14.20120   15.24613   14.45704
      H1    15.06127   15.50099   14.06857
       H     6.76207   12.22968   11.66229
       O     7.32978   12.21146   12.49104
      H1     6.59178   12.31260   13.18253
       H    16.66343   18.31729    8.15526
       O    15.90404   17.75753    8.16252
      H1    15.74677   17.76054    7.22274
       H    18.06417   17.48728   14.37577
       O    18.10812   18.26481   14.92991
      H1    18.23467   17.84932   15.78414
       H    10.63060   11.96970    9.52527
       O    10.91052   11.12197    9.16896
      H1    11.83141   11.35005    8.89447
       H     8.15055   13.81242   14.72838
       O     7.86244   14.10857   15.61965
      H1     7.92888   13.32426   16.12034

