180
frame 3 | Written by MDAnalysis XYZWriter (release 2.4.3)
       H     5.42380   -1.46190    7.09424
       O     5.42008   -2.32389    6.69622
      H1     5.17755   -2.92438    7.43659
       H     1.08029   -1.46225    5.69198
       O     0.48136   -1.15274    4.94695
      H1    -0.39103   -1.40697    5.16235
       H    -0.02330   -3.90091    6.01209
       O     0.38200   -4.74805    6.09316
      H1     0.93011   -4.64122    6.91795
       H    -3.47021   -6.05969    4.49058
       O    -4.37366   -6.41257    4.28787
      H1    -4.75053   -6.29012    5.18794
       H     4.38807  -10.55305   11.52631
       O     3.59387  -10.06150   11.58942
      H1     2.93161  -10.67338   11.93595
       H     1.13727   -9.98016    9.75968
       O     0.67777   -9.24101   10.18705
      H1     0.02009   -9.69293   10.67293
       H     2.16259  -14.07882    7.34891
       O     1.21004  -14.02975    7.30778
      H1     1.03151  -14.26128    6.36506
       H    -3.64814  -11.54565    7.48475
       O    -3.52601  -11.06311    6.59872
      H1    -2.84187  -10.37999    6.79356
       H     4.22990  -11.76688    7.53130
       O     4.52513  -11.97867    8.43432
      H1     4.33953  -11.08552    8.79929
       H     9.09381   -9.81866    4.27731
       O     8.65068  -10.17889    3.51658
      H1     7.70289  -10.12784    3.78772
       H    -0.95423   -9.61390    5.55396
       O    -1.58560   -9.52076    4.84843
      H1    -1.33586   -8.60743    4.54063
       H     7.01571  -10.23890    7.39336
       O     6.10643  -10.37037    6.92011
      H1     6.44997  -10.94201    6.21260
       H    -2.07929   -4.61553   11.70542
       O    -1.59049   -3.96580   11.14473
      H1    -1.22251   -4.61094   10.46649
       H     0.83038  -12.86114    2.13574
       O     0.53767  -13.63716    1.78023
      H1    -0.44533  -13.67659    2.05284
       H    -0.95195   -6.50550    2.93472
       O    -1.36939   -6.54846    3.85887
      H1    -0.60557   -6.39499    4.39061
       H    -1.49509  -12.32394    3.83187
       O    -1.01030  -11.60931    3.31802
      H1    -1.20823  -10.84882    3.93028
       H    -1.00586   -5.91911    6.62557
       O    -1.62148   -6.50092    7.08381
      H1    -2.51127   -6.29533    6.69945
       H     4.67662   -3.18264    2.96068
       O     4.01928   -2.71540    3.53085
      H1     3.36251   -3.41818    3.76513
       H     4.79837   -9.34745    6.12236
       O     4.02677   -8.91789    5.78968
      H1     3.36389   -9.55541    5.60789
       H     8.53847   -4.96657    3.59983
       O     7.56866   -5.06039    3.70136
      H1     7.73679   -5.75142    4.36582
       H     2.30891   -8.15671    6.46768
       O     1.39641   -7.88783    6.50547
      H1     1.22321   -8.13736    5.55791
       H     6.14566   -7.69996    9.04489
       O     5.97094   -8.49125    9.58945
      H1     5.21687   -8.19117   10.11769
       H     3.40494   -7.62972    0.33206
       O     3.66579   -8.34014    0.96562
      H1     3.99146   -7.80861    1.68241
       H    -4.48489   -9.04987    8.48063
       O    -5.47517   -8.92306    8.39600
      H1    -5.76089   -9.68822    8.86181
       H    -2.32177  -11.23557   12.24998
       O    -2.65747  -11.34857   11.36469
      H1    -3.09366  -10.49257   11.28899
       H    -2.43790   -9.34345    9.13781
       O    -3.13157   -9.23831    9.79299
      H1    -2.67658   -8.52041   10.24055
       H     2.77515   -9.83885    1.55458
       O     2.54920  -10.60396    2.12885
      H1     3.31551  -10.72923    2.68882
       H    -1.06766  -10.56670    8.12634
       O    -1.36950   -9.74935    7.76714
      H1    -0.55995   -9.24538    7.75631
       H    -1.59106  -14.05529   10.42759
       O    -1.85182  -13.29613    9.87503
      H1    -2.20476  -12.67513   10.52851
       H    -2.27355   -1.18078    4.47587
       O    -2.05272   -2.09412    4.77093
      H1    -2.20602   -2.49439    3.88626
       H     1.36709   -6.99946   12.45402
       O     2.07810   -7.06903   11.83683
      H1     2.00917   -7.85193   11.29814
       H    -0.85427  -14.38535    4.51155
       O    -0.38225  -13.68291    4.93047
      H1    -0.01417  -13.27001    4.10353
       H     5.92729  -11.66644    3.28563
       O     5.38077  -10.91851    3.42756
      H1     5.43096  -10.53774    2.50691
       H     2.60324   -5.95837    8.65347
       O     1.76408   -5.85636    8.20302
      H1     1.71782   -6.71834    7.74553
       H     5.00978  -13.82936   10.69271
       O     4.19992  -13.39994   11.01451
      H1     3.93371  -12.86841   10.19406
       H    -0.20584   -2.11175    1.79154
       O     0.52480   -2.42617    2.33043
      H1     0.43205   -1.91673    3.15550
       H    -2.46156   -4.34111    2.00331
       O    -2.39195   -4.02640    2.92724
      H1    -1.90846   -4.78387    3.35141
       H     2.26484  -12.66401   12.38627
       O     1.60041  -12.01419   12.32456
      H1     1.00565  -12.52184   11.68751
       H     0.64940   -2.67567    9.42309
       O     1.58701   -2.76268    9.44602
      H1     1.93255   -2.57160    8.56655
       H     0.20414   -6.26051    9.49305
       O    -0.71352   -6.02748    9.54197
      H1    -1.02096   -6.26175    8.62462
       H     7.34056   -5.74228    8.63202
       O     7.55137   -6.59802    8.25379
      H1     8.33402   -7.00192    8.64363
       H     2.84387   -1.03695    7.13139
       O     2.83469   -1.91588    6.70550
      H1     3.74050   -2.09655    6.52115
       H     1.69767   -3.84797    0.12584
       O     0.76832   -4.14128    0.14179
      H1     0.51413   -3.65437    0.95061
       H     4.45235   -6.33467    3.63004
       O     4.75522   -7.23179    3.45386
      H1     4.56525   -7.83195    4.18702
       H    -5.30788   -5.81387    7.75497
       O    -5.45293   -5.42981    6.88626
      H1    -6.23684   -4.90891    7.01452
       H    -0.87830  -11.10421    0.47701
       O    -0.40502  -10.28631    0.62779
      H1    -0.21693  -10.39772    1.58503
       H     1.04764   -9.19148    3.41014
       O     1.17831   -8.34083    3.82602
      H1     1.07907   -7.74956    3.04310
       H    -0.44513  -12.42342    9.23777
       O     0.20271  -11.85882    8.75180
      H1     0.42174  -12.42324    7.99630
       H    -4.03553   -3.94467    7.02466
       O    -3.13017   -3.73811    7.29254
      H1    -2.91209   -2.90837    6.74723
       H     1.24979   -4.58874    4.46064
       O     1.83153   -4.47270    3.64770
      H1     1.23621   -3.82789    3.07462
       H    -3.47482  -12.01627    4.71801
       O    -3.56942  -12.85965    4.21473
      H1    -4.09872  -12.57348    3.47544
       H    -4.97132   -7.29594    9.37039
       O    -5.28711   -6.42489    9.69844
      H1    -4.86789   -6.24947   10.52472
       H    -0.00560   -7.26840    0.90117
       O     0.13483   -6.61323    1.61007
      H1     0.45270   -5.85077    1.11684
       H     6.36829   -7.50332    2.50180
       O     7.21737   -7.53505    2.04399
      H1     7.69041   -6.88874    2.52811
       H     4.19089   -3.91884    9.57505
       O     4.84284   -3.51284    9.06816
      H1     4.90923   -2.65225    9.43933
       H     2.55712   -4.95554   11.66034
       O     2.78020   -4.05118   11.51899
      H1     2.19768   -3.76631   10.81699
       H     6.43283   -5.98307   11.70415
       O     5.46994   -6.10507   11.89657
      H1     5.57285   -6.66116   12.64205
       H    -1.37343   -7.04873   10.77688
       O    -1.97907   -7.33551   11.50465
      H1    -2.34711   -6.56027   11.95575
       H     0.26841   -9.01349   -0.33647
       O     0.32133   -8.12152   -0.84679
      H1    -0.59265   -7.80496   -0.88378
       H     3.42351   -9.67822    9.82965
       O     3.49005   -9.52081    8.85623
      H1     4.40940   -9.33648    8.72188

