180
frame 1 | Written by MDAnalysis XYZWriter (release 2.4.3)
       H    13.92754  -17.34848    1.91093
       O    14.71794  -16.76490    1.81892
      H1    14.56959  -15.96549    2.35850
       H    11.75218  -12.23457   -3.64996
       O    10.86632  -12.66127   -3.90493
      H1    10.84215  -12.26558   -4.81873
       H    16.41605  -15.38910   -2.25417
       O    17.00688  -15.46411   -3.05382
      H1    17.59735  -16.20481   -2.77062
       H    10.51087  -15.71392   -3.05819
       O    10.54674  -15.91752   -2.13340
      H1    11.29347  -16.51430   -2.05719
       H     7.37252   -8.37701   -1.86517
       O     8.03301   -8.27405   -1.16319
      H1     7.68743   -8.93645   -0.53264
       H    10.76615   -7.32317    1.92857
       O    11.14371   -8.07031    2.47205
      H1    11.84370   -8.25160    1.84257
       H     7.62035  -13.20049    3.67643
       O     8.34113  -12.59312    3.72078
      H1     7.87860  -11.78113    3.53684
       H    13.05862   -8.49632   -7.58323
       O    13.89164   -9.00267   -7.46897
      H1    14.23555   -8.84083   -6.60791
       H    17.12513   -7.02794   -3.70542
       O    16.78977   -6.74831   -2.81120
      H1    17.30446   -5.95068   -2.62311
       H    11.13370  -12.72952    1.57784
       O    11.98743  -12.35983    1.89512
      H1    11.84939  -12.03802    2.78912
       H     9.01957   -9.42893    2.84305
       O     8.32174   -9.98694    2.47531
      H1     7.64658   -9.29435    2.30644
       H    11.78146  -11.39194    0.30453
       O    12.07212  -10.76247   -0.37987
      H1    11.32187  -10.33665   -0.73671
       H    12.91312   -6.03094   -2.44723
       O    12.67245   -5.11694   -2.48863
      H1    13.52308   -4.65863   -2.45838
       H    12.73405   -9.05615   -4.68567
       O    13.54492   -9.26423   -4.17540
      H1    13.43911  -10.18620   -3.99204
       H    12.99360   -8.21684   -1.26842
       O    12.58609   -7.84715   -2.04979
      H1    12.85484   -8.45508   -2.78889
       H     9.14104  -14.93212   -4.72808
       O    10.06089  -15.00176   -5.09288
      H1    10.40400  -14.19391   -4.67019
       H    12.42397   -4.56417   -0.35651
       O    12.07978   -4.16849    0.44186
      H1    11.52781   -3.43750    0.19252
       H    13.61155   -5.92853    4.78844
       O    13.00726   -6.24403    5.50677
      H1    12.13843   -6.20919    5.05443
       H    10.34293  -16.64913    0.20059
       O    10.33029  -15.98976    0.94012
      H1    10.00307  -15.18687    0.50887
       H    15.88135   -9.64168    1.79539
       O    16.06215   -8.66086    1.79850
      H1    16.78304   -8.58507    1.17899
       H    15.85509  -15.21723    0.61829
       O    16.52788  -14.73035    1.08033
      H1    17.21936  -15.40130    1.11776
       H    11.08730   -6.86676   -1.23941
       O    10.32501   -6.38146   -0.92743
      H1     9.64293   -7.05262   -1.05249
       H    16.24730  -13.85949   -3.20291
       O    15.58010  -13.18055   -3.34023
      H1    16.00573  -12.34093   -3.41554
       H    13.58538  -13.80097    2.80378
       O    13.82542  -14.62663    3.28625
      H1    12.92754  -14.95544    3.43352
       H     7.28477   -6.55376   -0.68473
       O     6.40033   -6.16610   -0.61808
      H1     6.39526   -5.62317    0.18232
       H    14.26464   -8.39280    0.85668
       O    13.32752   -8.33921    0.68322
      H1    13.14990   -9.30296    0.47838
       H    11.05924  -11.92598   -7.20865
       O    10.85519  -11.56650   -6.34841
      H1    11.19728  -10.65269   -6.40609
       H    13.91489  -12.28959   -2.95301
       O    13.18155  -11.65894   -3.11236
      H1    13.19743  -11.22201   -2.25818
       H     8.84558   -8.17072    5.65528
       O     9.43032   -8.80389    5.22407
      H1    10.24134   -8.66267    5.73254
       H    12.39081  -10.25301    5.12333
       O    12.09731  -10.85276    4.42469
      H1    11.62354  -10.20775    3.91003
       H     5.12652  -12.84173    0.95609
       O     4.36156  -13.03013    0.43007
      H1     4.48004  -12.49261   -0.34367
       H    10.02856   -4.47241   -1.98786
       O     9.93300   -3.51023   -2.15303
      H1    10.69650   -3.27649   -2.69938
       H    11.88142   -8.37217    7.53105
       O    11.91358   -8.47075    6.56841
      H1    12.41780   -7.66830    6.31628
       H    11.17164   -5.70893   -4.78118
       O    12.02293   -6.08786   -5.18266
      H1    12.55343   -6.07178   -4.38647
       H    14.80614  -16.42391    0.08560
       O    15.02643  -16.22244   -0.84136
      H1    14.25182  -15.72760   -1.12111
       H    15.52010   -9.64744   -0.94302
       O    15.04005  -10.52346   -0.92797
      H1    15.76582  -11.16260   -0.92553
       H     9.15189   -9.44937   -4.29159
       O     8.65876   -9.43492   -5.15388
      H1     8.47237  -10.32951   -5.39429
       H    10.15753   -8.99417   -5.67881
       O    11.03708   -8.61779   -5.85365
      H1    11.10023   -7.86835   -5.26933
       H     9.38094  -12.58558   -2.85322
       O     8.70477  -12.74307   -2.20011
      H1     8.02038  -12.22186   -2.64896
       H    15.35025   -4.28424   -1.27020
       O    15.09452   -3.90136   -2.05821
      H1    15.89740   -3.39271   -2.20184
       H    10.77362  -14.49179    4.30090
       O    10.40796  -14.02152    5.09109
      H1     9.88396  -13.30739    4.66582
       H    18.29202   -9.25636   -0.40773
       O    18.45747   -8.60132    0.32403
      H1    18.56221   -7.71097   -0.07664
       H    14.39848  -15.43702   -5.08444
       O    14.15082  -14.55240   -5.42186
      H1    14.35754  -13.95881   -4.65812
       H    17.22754   -7.34648    2.95174
       O    17.73189   -7.32424    3.76051
      H1    18.39008   -6.69981    3.72055
       H    16.85495   -9.97801   -4.68610
       O    16.46134  -10.33497   -3.88988
      H1    15.75447   -9.70496   -3.74346
       H    10.98496  -15.88824    2.53868
       O    11.50173  -15.95350    3.36454
      H1    11.92542  -16.82230    3.29700
       H     9.17112   -9.19952   -1.97313
       O     9.77093   -9.78119   -2.46564
      H1     9.41610  -10.66103   -2.35765
       H     7.53377  -10.36656    0.71725
       O     6.75528  -10.21737    0.16966
      H1     6.12015   -9.69616    0.68363
       H     8.42582  -13.09092    0.83283
       O     9.38611  -13.17728    0.63016
      H1     9.29530  -12.96370   -0.30067
       H    10.51454   -4.83086    1.61630
       O     9.82824   -5.47387    1.62992
      H1     9.89629   -5.91370    0.76847
       H     5.97931  -11.70423   -4.76129
       O     6.85750  -11.98878   -4.61925
      H1     7.23803  -12.02578   -5.50876
       H    13.00186  -13.67864   -0.16063
       O    13.02483  -14.36626   -0.82187
      H1    12.08484  -14.38515   -1.11576
       H    19.22798   -9.71248   -2.31341
       O    18.39472   -9.93589   -1.94748
      H1    17.75177  -10.05149   -2.64040
       H    13.79831  -11.06386    2.18614
       O    14.61979  -11.09344    2.71622
      H1    15.28980  -11.43776    2.07516
       H     5.03668   -8.24335    2.50002
       O     5.99208   -8.18465    2.58720
      H1     6.10466   -7.36734    3.11395
       H     7.38208   -8.20213   -6.91090
       O     7.19894   -7.47013   -6.27631
      H1     7.69318   -7.78911   -5.53416
       H    14.84523   -9.71313    4.33151
       O    15.46805   -9.67102    5.05164
      H1    16.16142  -10.30329    4.87019
       H    16.83820  -13.06089    1.28458
       O    16.81923  -12.08879    0.98661
      H1    17.72818  -11.86862    1.20658
       H    17.04288  -14.46275    4.40799
       O    16.35380  -13.80347    4.49138
      H1    15.59920  -14.13168    3.97094
       H    10.42699   -6.23273    3.95195
       O    10.33308   -5.60578    4.66290
      H1    10.57121   -4.74900    4.18680

