180
frame 2 | Written by MDAnalysis XYZWriter (release 2.4.3)
       H   -12.81161    7.46038   14.58465
       O   -12.00910    7.19067   15.02367
      H1   -11.60406    8.01588   15.43665
       H   -16.88344   19.04932   13.11549
       O   -17.68459   18.52611   13.00460
      H1   -17.52306   17.77173   13.51348
       H   -18.37045    5.91115    9.49284
       O   -18.94217    6.56388    9.90493
      H1   -18.79199    7.35354    9.32735
       H   -15.96046    4.16604   19.07387
       O   -16.18653    3.22905   19.17844
      H1   -16.67815    3.15089   18.33767
       H   -18.78430    3.45480   11.18524
       O   -18.41984    3.36771   10.28057
      H1   -17.48631    3.38339   10.55750
       H   -10.08824    7.78110   14.19738
       O    -9.51764    7.76686   13.44701
      H1    -8.58780    7.81146   13.80987
       H   -15.25616    8.41415   10.71279
       O   -15.94225    7.89062   11.14863
      H1   -16.18966    7.29268   10.45318
       H   -17.09720   -1.06055   11.72433
       O   -16.87401   -1.05780   12.67677
      H1   -17.33265   -0.27818   13.01248
       H   -17.20197   15.70337   17.87104
       O   -17.02266   16.59924   17.59373
      H1   -17.77714   17.12009   17.95421
       H   -18.21405    3.55649   16.31306
       O   -17.65759    2.92145   16.81522
      H1   -16.74273    3.23959   16.71285
       H   -13.85380   16.12638   17.31620
       O   -13.66967   15.23334   16.89835
      H1   -14.07329   14.60454   17.52185
       H   -13.89401    9.41300   12.89411
       O   -13.69728   10.32131   13.07897
      H1   -12.75113   10.32184   13.30707
       H   -16.29408   15.97147   14.66598
       O   -17.05943   16.56977   14.80231
      H1   -17.19890   16.63901   15.78760
       H   -10.95639    4.39792   14.26692
       O   -11.00169    5.04322   13.56000
      H1   -11.29845    5.84772   13.96543
       H   -14.47496   16.61047   13.19851
       O   -14.05974   17.41507   12.85531
      H1   -13.35984   17.60097   13.45442
       H   -15.14266   10.14116    6.86274
       O   -15.95708    9.60846    7.00032
      H1   -16.00474    9.52978    7.96495
       H   -14.94967    8.19832   14.12327
       O   -14.52243    7.48611   13.61641
      H1   -15.07140    7.62965   12.74706
       H   -14.37699    2.97045   16.25085
       O   -14.99504    3.70891   16.08679
      H1   -14.69862    4.47525   16.60275
       H   -18.48322    6.93633   18.30874
       O   -17.90151    6.77673   17.54570
      H1   -17.57908    7.72254   17.39461
       H   -18.73897    9.68397    8.28414
       O   -18.06269   10.32280    8.41374
      H1   -17.52258   10.09811    7.66317
       H   -15.32672   10.23180   14.74468
       O   -16.04135    9.57476   14.85591
      H1   -16.87907   10.02180   14.61127
       H   -13.48445    8.56614   18.43016
       O   -12.81446    8.09491   17.93128
      H1   -13.25644    7.21320   17.76981
       H   -10.74457   10.08973   14.62096
       O   -10.89509   10.44908   13.71778
      H1   -10.43963    9.82425   13.14999
       H   -17.63790   13.30214   18.44842
       O   -17.30971   14.02683   18.99386
      H1   -17.01801   13.58296   19.82679
       H   -17.55098   17.12943   11.42501
       O   -17.21092   16.35006   10.98665
      H1   -16.39661   16.61136   10.63179
       H   -16.03285    6.98627    5.20861
       O   -15.45275    6.93897    5.98793
      H1   -15.48404    7.85059    6.33360
       H   -10.25372    8.60656   11.56485
       O   -10.56757    9.47680   11.29608
      H1   -10.78233    9.49059   10.32728
       H   -17.56046    1.62559   15.36380
       O   -17.28646    1.20435   14.54062
      H1   -16.33313    1.05139   14.59248
       H   -18.46009   10.04477   10.42460
       O   -18.47887    9.33534   11.10814
      H1   -17.62162    8.97056   10.85289
       H   -18.13864    1.59641   17.95083
       O   -18.28309    0.78912   18.53443
      H1   -18.13812    0.05875   17.85905
       H   -17.76843    4.92745   14.76831
       O   -18.44918    5.14770   15.43433
      H1   -18.00648    5.69006   16.10529
       H   -11.49006    6.53728    9.55138
       O   -12.39871    6.31816    9.42570
      H1   -12.39736    6.03730    8.41704
       H   -13.75884   12.12254   19.00879
       O   -14.26016   12.86242   18.62576
      H1   -15.13822   12.49542   18.49325
       H   -11.00585   11.88894   11.76523
       O   -11.57740   12.15815   10.98398
      H1   -12.08425   11.37778   10.84912
       H   -18.59129    9.42190   12.77121
       O   -18.55241    9.44359   13.81062
      H1   -19.25961    8.80018   14.00619
       H   -19.13291   15.94773    8.16175
       O   -18.94744   16.77952    8.61075
      H1   -18.24235   16.53223    9.25442
       H   -14.91564    4.49091   10.70398
       O   -15.69996    4.18626   11.13419
      H1   -15.63230    4.54580   12.05761
       H   -12.94385   11.56347    7.03106
       O   -13.31385   10.67392    7.04156
      H1   -12.82446   10.28221    6.31022
       H   -15.16478    5.69137   13.74456
       O   -15.80451    4.92796   13.80224
      H1   -15.48857    4.46512   14.58329
       H   -16.81833    6.34529    7.53678
       O   -16.98242    5.65224    8.19851
      H1   -16.10385    5.25928    8.33494
       H   -16.43052   12.39841   13.62446
       O   -16.28726   12.74049   14.50791
      H1   -17.16714   12.95598   14.84970
       H   -13.67972    5.32923   18.62622
       O   -13.63202    5.59845   17.69172
      H1   -12.62648    5.46992   17.56281
       H   -17.92152   14.96597   11.08347
       O   -18.24662   14.07253   11.18270
      H1   -18.60124   13.78215   10.36478
       H   -13.50392    4.52042    7.49378
       O   -14.23846    4.31192    8.09922
      H1   -13.77224    3.77877    8.76376
       H   -13.53919    1.20576   11.68869
       O   -13.75222    1.97597   11.13824
      H1   -14.43089    2.41440   11.58652
       H   -16.76726   13.39251   11.16401
       O   -16.03235   12.68806   11.34164
      H1   -15.26393   13.28679   11.26583
       H    -9.91942    9.57506   16.64409
       O   -10.63489    9.11629   16.21442
      H1   -11.17103    8.78885   16.94127
       H   -19.03653   11.27296   14.30614
       O   -19.00272   12.01282   14.88109
      H1   -19.14265   12.71841   14.26913
       H   -18.54179   12.12781    5.26605
       O   -19.15467   12.81129    5.58331
      H1   -19.47451   13.04304    4.71433
       H   -18.86842   14.57267   13.00550
       O   -19.04341   14.73563   13.95609
      H1   -18.19635   15.19516   14.09513
       H   -17.65066   10.84739   17.75075
       O   -18.21318   11.59296   17.82006
      H1   -18.64285   11.68329   16.95110
       H   -17.47912    4.22913    7.61292
       O   -17.68079    3.42904    7.09894
      H1   -18.58480    3.38063    7.39662
       H   -14.55009   15.13245   15.30851
       O   -14.88804   15.09019   14.38502
      H1   -15.34437   14.24939   14.38031
       H   -14.00764   10.74516   11.46448
       O   -14.17240   10.85089   10.47559
      H1   -15.03277   11.36834   10.51623
       H   -19.35755   12.87634    7.89600
       O   -19.05702   13.03571    8.80956
      H1   -18.57349   12.20021    8.96686
       H   -16.61110    5.86773   20.10523
       O   -16.12490    5.99011   19.26589
      H1   -16.84341    6.16155   18.52472
       H   -14.03498    8.93200    8.99644
       O   -14.54308    8.13495    8.93601
      H1   -13.87907    7.48008    9.25448
       H   -12.99338   13.16088   11.71678
       O   -13.59893   13.89413   11.85214
      H1   -13.66021   13.83417   12.80605
       H   -16.34879    9.61628   16.56278
       O   -16.92538    9.38189   17.36024
      H1   -16.30608    9.28835   18.12434
       H   -16.44665   11.74558    5.04440
       O   -17.23820   11.11113    4.87544
      H1   -17.17293   10.36382    5.51703

