180
frame 135 | Written by MDAnalysis XYZWriter (release 2.4.3)
       H    -9.78103   10.87862    9.48492
       O   -10.34542   11.69467    9.42176
      H1   -10.64489   11.78909   10.32942
       H   -10.18494   18.30988    9.83184
       O   -10.32835   18.34932   10.80705
      H1   -10.62870   17.49470   11.07513
       H   -17.62580   14.76081   14.35379
       O   -17.70251   13.78549   14.23873
      H1   -17.74017   13.46802   15.13932
       H   -16.45174   17.68733   12.62283
       O   -16.18130   18.62549   12.34850
      H1   -16.98035   18.93001   11.84337
       H   -15.47359   13.38100    4.51248
       O   -15.11656   14.12301    3.97696
      H1   -14.17845   14.10714    4.21931
       H   -16.15536    9.55605   14.83721
       O   -16.62167    8.85098   15.26272
      H1   -17.52503    9.02452   15.06685
       H   -18.26963   14.51710    5.90375
       O   -18.35353   14.46517    6.87956
      H1   -19.06497   13.84021    7.00369
       H   -15.99355   12.47552    7.77399
       O   -15.80161   11.47640    7.89004
      H1   -14.81373   11.38019    7.77913
       H   -12.62220   19.55103   14.34000
       O   -13.47942   19.19315   13.87909
      H1   -14.15254   19.57046   14.50104
       H   -11.88953   14.25455    4.64107
       O   -12.72266   14.39327    5.05231
      H1   -12.67517   15.37227    5.16960
       H   -15.94508   15.39199   13.26578
       O   -16.55963   16.08434   13.53555
      H1   -16.17225   16.40361   14.32690
       H   -15.36952   16.38458    9.84211
       O   -16.34435   16.23701    9.79408
      H1   -16.68249   17.07764    9.50360
       H   -14.58250   13.04200   12.61057
       O   -14.73507   13.86458   13.05651
      H1   -15.19522   13.49101   13.77098
       H   -17.48965   14.88630    3.67594
       O   -18.19716   14.26464    3.52996
      H1   -19.03031   14.73135    3.77912
       H   -14.16722    8.38771    4.39647
       O   -14.28043    9.38939    4.54471
      H1   -14.35711    9.57509    3.62291
       H   -18.69919   10.81870    7.09773
       O   -18.35375   10.69483    8.02130
      H1   -17.37527   10.81614    7.90726
       H   -16.19612   17.24919   17.51657
       O   -17.15044   17.51119   17.52557
      H1   -17.36128   17.41793   18.43653
       H   -17.14024   12.77720    2.54970
       O   -16.35933   12.76983    2.01389
      H1   -15.82318   13.30799    2.57697
       H   -16.85869   12.10989   12.10279
       O   -16.98910   11.11087   12.32321
      H1   -17.94598   11.00432   12.19836
       H   -11.70660   15.69516   12.53010
       O   -11.56324   15.90859   11.59408
      H1   -12.35125   15.62265   11.09776
       H   -18.83872   13.85735   17.85211
       O   -19.25301   14.64283   18.19411
      H1   -19.54481   15.14934   17.41891
       H   -17.55492   11.83148   16.74342
       O   -17.52885   12.80800   16.73286
      H1   -16.70545   13.02094   17.24093
       H   -18.93769   13.57156   13.18109
       O   -19.50875   13.58300   12.38308
      H1   -18.89347   13.65948   11.66407
       H   -15.06189   19.80126    8.86706
       O   -15.38323   19.86633    7.97191
      H1   -15.46947   18.95092    7.68755
       H   -12.57078   10.16953    4.98435
       O   -11.86054   10.76281    5.28454
      H1   -12.25138   11.15873    6.06073
       H   -10.14532   15.70223    7.47559
       O    -9.63260   16.46568    7.16721
      H1    -9.60094   16.21384    6.23876
       H   -15.98983    9.74944   10.01982
       O   -15.15818    9.25002   10.03525
      H1   -14.63967    9.46867    9.23841
       H   -16.01979   16.87618    5.40006
       O   -16.34146   17.10086    4.46089
      H1   -17.22327   17.53338    4.46343
       H   -13.43508   10.68858   12.20090
       O   -13.99542   11.35048   11.80985
      H1   -14.63234   10.74762   11.28362
       H   -17.13511   12.97087   10.04165
       O   -17.44317   13.65638   10.59756
      H1   -16.92357   14.40635   10.17204
       H   -14.03108    6.86455   11.48497
       O   -13.16651    7.01291   11.95433
      H1   -13.27155    6.64441   12.85278
       H   -13.87159    9.18978    6.76295
       O   -13.87959    8.76448    7.60520
      H1   -14.18842    7.90691    7.29263
       H   -12.42116    9.69661   13.72901
       O   -12.18269    9.56515   12.76596
      H1   -12.59959    8.67326   12.73147
       H   -18.08051    7.51249    6.60523
       O   -17.86882    6.78675    5.94708
      H1   -17.35731    6.16178    6.47541
       H   -12.35516   14.14519   14.04980
       O   -11.77551   14.91391   14.17857
      H1   -12.37543   15.59736   14.57882
       H   -10.33817   14.31452   11.58902
       O    -9.95847   13.42600   11.57014
      H1    -9.72202   13.28717   12.49763
       H   -18.67448   17.77183    8.35519
       O   -17.84382   18.29748    8.56468
      H1   -18.17041   18.95471    9.25177
       H   -18.02044   10.80716    5.16290
       O   -18.75100   11.42890    5.34858
      H1   -18.89837   11.66263    4.39351
       H   -19.70705   17.19432   15.65872
       O   -19.84345   17.31050   16.63001
      H1   -18.93412   17.20267   16.88830
       H   -16.14956    9.12745    4.62360
       O   -17.11481    9.01462    4.53364
      H1   -17.28156    8.20014    4.96047
       H   -10.87829    7.60592    7.45294
       O   -11.44429    7.18692    8.13093
      H1   -12.13648    7.87438    8.13076
       H   -15.34253   15.92008    7.06441
       O   -15.18409   16.89172    6.94044
      H1   -14.36875   16.92841    6.38404
       H   -15.28201    7.23535    9.76014
       O   -15.22352    6.41634   10.28700
      H1   -15.97694    6.59998   10.86266
       H   -14.16996   18.06885   18.28705
       O   -14.39277   17.25903   17.70261
      H1   -13.60953   17.31051   17.06810
       H   -19.03656    9.63114    9.28188
       O   -18.97897    8.88413    9.87237
      H1   -19.53943    9.24759   10.57932
       H   -12.70436   12.73653    7.90379
       O   -13.09410   11.85365    7.78067
      H1   -12.67626   11.39996    8.57728
       H   -18.08418   19.83927    4.21514
       O   -18.35195   19.03083    4.72771
      H1   -18.99350   19.41629    5.40280
       H   -14.44783   11.78519   14.56975
       O   -15.41063   11.75043   14.74410
      H1   -15.87817   11.62621   13.95973
       H   -17.63832    5.43682   11.46433
       O   -18.56442    5.65951   11.13857
      H1   -18.37272    6.18159   10.33719
       H   -16.85755   14.42968    7.55625
       O   -15.91716   14.45444    7.80152
      H1   -16.05416   15.25266    8.43454
       H   -12.93309   17.89358   15.06995
       O   -12.67568   17.12135   15.68450
      H1   -11.72462   17.27804   15.77165
       H   -19.18993    8.38872   14.27803
       O   -19.05637    9.37295   14.27176
      H1   -19.29858    9.61701   13.37388
       H    -9.56590   12.83850   14.53198
       O    -9.11140   13.59826   14.16960
      H1    -9.70414   14.30303   14.52024
       H   -12.46874   17.74760    6.38044
       O   -12.87246   17.36527    5.59824
      H1   -13.35869   18.13355    5.26103
       H   -12.73402   12.82151   16.52127
       O   -12.68675   12.06051   15.95598
      H1   -13.23048   11.45103   16.49796
       H   -13.75028   17.69268    9.45184
       O   -13.70165   16.76369    9.74234
      H1   -13.06191   16.39312    9.07441
       H   -15.07670   18.26359    4.01366
       O   -14.45538   18.99521    4.14400
      H1   -14.07556   19.09177    3.23853
       H   -10.85432   17.50209    7.76679
       O   -11.63246   18.08826    7.85960
      H1   -11.31716   18.96469    7.66993
       H   -19.28898    9.94714   15.88809
       O   -19.16981   10.13178   16.86903
      H1   -19.72397   10.90084   16.96184
       H   -10.98129   13.37540    7.30170
       O   -11.58149   14.11800    7.44869
      H1   -11.83891   14.28224    6.55820

