180
frame 3 | Written by MDAnalysis XYZWriter (release 2.4.3)
       H     3.83206  -11.43756   17.46538
       O     3.95497  -10.44311   17.33207
      H1     3.76741  -10.16773   18.30945
       H    11.76481  -16.52115   16.01864
       O    11.60201  -16.18938   16.87126
      H1    10.70715  -15.75505   16.81614
       H    18.83868   -9.64766   16.85752
       O    19.67873  -10.02723   17.30020
      H1    20.18607  -10.43551   16.64738
       H     9.52741  -14.35754   15.86559
       O     9.15401  -14.66048   16.70747
      H1     9.35655  -14.00336   17.39033
       H     9.15860   -8.68201    9.73880
       O     9.57333   -7.89375    9.34662
      H1    10.18378   -7.64832   10.10363
       H     9.60620   -2.33387   13.49065
       O    10.32984   -2.45306   12.84740
      H1    10.93475   -1.85652   13.28119
       H     9.02743   -2.87551   15.97514
       O     8.33494   -3.48914   16.28286
      H1     8.88295   -4.31392   16.61685
       H     7.37804   -8.38970   19.35185
       O     6.45412   -8.41342   19.04200
      H1     6.57725   -8.32716   18.08617
       H    11.34344   -3.29872   14.60613
       O    11.39025   -3.25302   15.60976
      H1    11.82323   -4.05183   15.96131
       H    15.14260  -13.84516   13.14474
       O    15.55599  -14.45232   12.53698
      H1    15.95807  -13.82363   11.91299
       H    15.27684   -9.52918   18.84641
       O    15.03781   -9.35087   17.95319
      H1    15.82905   -8.94297   17.58048
       H    10.24693   -1.81581   20.01424
       O    10.25672   -2.21567   19.11028
      H1    11.13722   -2.66213   19.05403
       H    17.63133  -13.34491   17.51198
       O    17.20084  -13.19073   18.37629
      H1    17.86924  -12.52291   18.67344
       H    10.45271  -10.24831    9.68562
       O    11.04768  -10.51987    8.91272
      H1    10.36293  -10.76339    8.26634
       H     5.69466   -4.55871   17.65640
       O     5.19775   -5.09817   17.07324
      H1     4.96586   -4.50206   16.34873
       H    14.12602  -11.69824   13.09081
       O    14.89601  -11.96746   13.51818
      H1    14.45097  -12.34467   14.33965
       H     5.68396  -11.64407   13.22301
       O     5.73320  -11.60314   12.28735
      H1     5.18791  -12.35343   11.98681
       H    15.35733  -15.47253   16.78529
       O    15.05914  -16.36940   16.88344
      H1    14.75655  -16.68812   16.01479
       H     6.96578   -6.00077   16.41727
       O     7.55006   -6.72811   16.24849
      H1     7.04382   -7.43385   15.86383
       H     9.10484   -6.18595   17.13268
       O     9.75612   -5.57397   17.49441
      H1     9.25386   -5.47654   18.37764
       H     7.34553   -3.20720   17.95638
       O     7.04217   -3.30355   18.87642
      H1     7.66849   -3.93761   19.33003
       H    12.24854   -7.65922   10.50430
       O    11.58157   -7.61981   11.21382
      H1    11.68333   -6.72616   11.60728
       H    12.02459  -13.91524   14.69746
       O    12.90311  -13.56853   14.74145
      H1    13.05044  -13.69123   15.70915
       H    15.89625   -4.94174   12.46039
       O    16.03944   -4.50382   11.62478
      H1    16.85887   -3.97232   11.76692
       H     9.59533   -9.09405   18.58030
       O     9.00638   -8.60830   19.23657
      H1     9.18818   -9.08170   20.05737
       H    18.49402   -6.81269   13.57184
       O    17.59368   -7.11052   13.72460
      H1    17.39320   -7.57572   12.91986
       H     8.47103   -8.40418   11.96994
       O     7.60121   -7.89789   12.03702
      H1     7.26577   -8.17564   11.21030
       H     9.90723  -13.21630   13.93827
       O    10.12857  -14.09073   14.21782
      H1    10.30525  -14.50390   13.36413
       H    10.16996  -11.19165   15.86951
       O     9.51802  -11.48126   15.21465
      H1     8.74198  -11.59481   15.84388
       H     5.15548   -8.78193   15.26617
       O     5.80600   -9.13609   15.88241
      H1     5.23227   -9.62326   16.50229
       H    13.07779   -3.49389   18.75726
       O    12.38599   -4.20149   18.80728
      H1    12.76546   -4.82391   19.49301
       H     3.65238   -7.18646   13.50952
       O     4.30112   -7.84254   13.89543
      H1     4.12671   -8.60231   13.30052
       H    17.39065   -8.30897   15.70967
       O    17.72587   -8.29008   16.60768
      H1    18.45747   -7.67603   16.59574
       H     5.76961  -13.86279   19.74399
       O     5.95302  -13.11806   19.13703
      H1     6.10805  -12.37419   19.71383
       H    16.25187  -10.55063   13.82373
       O    17.12686  -10.35491   14.08628
      H1    17.56921  -10.71568   13.31948
       H    11.31355   -8.99496   12.46984
       O    11.30416   -9.93160   12.73660
      H1    11.39053   -9.82941   13.69169
       H    12.30237   -5.07475   17.57298
       O    12.30459   -5.45725   16.65122
      H1    11.34209   -5.59388   16.63948
       H    15.19472   -3.59516   14.83910
       O    16.02347   -3.96607   14.43092
      H1    16.65710   -3.23813   14.51336
       H     8.71441  -12.08029   13.33157
       O     8.42168  -12.52215   12.50287
      H1     7.45393  -12.37344   12.62672
       H     8.00371   -5.77031   14.50457
       O     8.11139   -5.63054   13.55928
      H1     7.92787   -6.49259   13.18514
       H    13.10120   -2.33317   15.37271
       O    14.09809   -2.30209   15.36229
      H1    14.11982   -1.34808   15.14673
       H     6.65533  -11.92169   17.19931
       O     7.60153  -11.60965   17.23252
      H1     7.87473  -12.07377   18.04062
       H    12.65699   -7.07165   17.03874
       O    12.70181   -7.88189   17.64532
      H1    13.57620   -8.23487   17.30334
       H     9.42906  -10.48838   11.64650
       O     9.05756  -10.01403   10.85800
      H1     8.30651  -10.56930   10.70528
       H    18.52553  -12.82755   15.11837
       O    17.59275  -12.99215   15.39737
      H1    17.20323  -12.10798   15.22870
       H    14.07253  -11.10544   10.78188
       O    13.37144  -11.44785   11.42148
      H1    12.75538  -10.73583   11.60803
       H    14.76359   -8.65155   15.06083
       O    13.80356   -8.48959   15.01508
      H1    13.76664   -7.83386   14.29702
       H    11.32473   -9.01622   17.35816
       O    10.83445   -9.86541   17.47442
      H1    11.60859  -10.27999   17.93444
       H     7.01157   -3.56200   14.56825
       O     6.24922   -3.36043   14.03471
      H1     6.47784   -3.79433   13.19573
       H     9.20749   -9.36238   14.88005
       O     9.38298   -8.46364   14.63908
      H1    10.41191   -8.31779   14.71858
       H    14.62780   -2.57542   17.16384
       O    14.42316   -2.63988   18.10366
      H1    15.22574   -3.07382   18.44168
       H     9.63124  -13.92496   19.82422
       O     9.64559  -13.42142   19.01348
      H1    10.25886  -12.63935   19.33846
       H     4.60179  -11.85495   15.06658
       O     5.60011  -11.87542   14.91660
      H1     5.96766  -11.16584   15.45163
       H     9.79904   -5.07829   12.69802
       O    10.71367   -5.08627   12.35922
      H1    10.91311   -4.14223   12.41673
       H    15.78962   -6.39445   19.08894
       O    16.62580   -6.38271   18.65042
      H1    16.37580   -7.02620   17.93952
       H    12.69037  -14.88630   17.81012
       O    12.80342  -13.90502   18.12121
      H1    13.57238  -13.94665   18.67550
       H     7.59313  -14.36178   16.25164
       O     6.62432  -14.52248   16.01195
      H1     6.53348  -13.73373   15.45826
       H    16.88710   -3.96937   16.65164
       O    17.31787   -3.18994   17.09828
      H1    17.15391   -3.51996   17.97896
       H     8.25353  -16.20688   17.50399
       O     8.12327  -16.95611   18.11365
      H1     7.11996  -17.05161   18.10547
       H     6.43283   -5.98307   11.70415
       O     5.46994   -6.10507   11.89657
      H1     5.57285   -6.66116   12.64205

