180
frame 10 | Written by MDAnalysis XYZWriter (release 2.4.3)
       H   -18.59910   11.80307   -6.62543
       O   -17.72339   12.23966   -6.64085
      H1   -17.91479   13.18545   -6.76152
       H   -17.08866   15.31005   -5.31439
       O   -17.08546   14.52776   -4.75770
      H1   -17.78030   14.61487   -4.04921
       H   -17.40941   15.90563   -9.71510
       O   -18.35600   15.68442   -9.89456
      H1   -18.65407   16.21629  -10.68300
       H   -13.53616   20.10958   -4.19333
       O   -13.38990   19.13949   -4.19984
      H1   -14.13514   18.86475   -4.70983
       H    -6.20686   17.49611   -5.59872
       O    -5.95797   16.66849   -5.08449
      H1    -5.98184   15.90367   -5.59933
       H   -13.60980   13.27659  -10.69300
       O   -12.74044   12.89665  -10.86586
      H1   -12.55635   13.14846  -11.78643
       H   -15.12881   18.77075  -10.21111
       O   -14.43100   18.32701   -9.71263
      H1   -14.74626   17.48963   -9.35451
       H   -12.56520   18.43111  -10.27691
       O   -11.69113   18.41435  -10.74901
      H1   -11.75630   19.32507  -11.17976
       H    -6.63975   18.01301   -1.78702
       O    -6.15967   18.37903   -1.02465
      H1    -6.66304   19.19427   -0.84252
       H   -14.96860   12.18314   -5.59828
       O   -15.03382   12.93539   -4.97244
      H1   -15.98122   13.14615   -4.96248
       H    -9.56287   14.95010    0.71513
       O    -8.72785   15.47321    0.74676
      H1    -8.09331   14.90335    0.22065
       H   -14.42540   15.06054   -5.09519
       O   -14.62210   15.97751   -5.16180
      H1   -15.45055   15.94080   -4.76632
       H   -19.32214   19.57159   -1.74567
       O   -19.63183   19.18150   -2.60427
      H1   -19.59637   18.19034   -2.27091
       H   -18.06456   16.64526   -7.19720
       O   -17.52882   16.99268   -6.42508
      H1   -18.06150   17.66716   -5.90357
       H   -12.99433   19.37068    2.65164
       O   -12.39238   18.77464    2.16340
      H1   -12.00283   19.39802    1.50104
       H    -8.07011   16.48734   -2.49991
       O    -7.65350   17.29919   -2.86542
      H1    -7.09715   16.95949   -3.60113
       H   -18.84760   16.90938   -0.50704
       O   -19.00977   17.82818   -0.30269
      H1   -19.76102   17.71078    0.29520
       H   -11.83332   11.68893   -1.68285
       O   -11.63682   11.54527   -0.74643
      H1   -12.46611   11.15220   -0.50807
       H   -10.51480   10.49829    1.69558
       O    -9.80312   10.97736    1.19108
      H1   -10.37785   11.47341    0.59666
       H   -11.06786   10.54197   -6.50921
       O   -11.92432   10.75386   -6.06342
      H1   -12.57166   10.55351   -6.78337
       H   -14.29824   10.29582   -1.61972
       O   -14.27999   10.25853   -0.65880
      H1   -13.74292    9.49866   -0.52293
       H   -13.40290   17.96080    0.79487
       O   -13.95498   17.51523    0.10721
      H1   -14.40693   18.32080   -0.27199
       H    -8.95277   14.70270   -7.07312
       O    -8.92796   13.71617   -6.73320
      H1    -9.73887   13.68697   -6.14968
       H   -16.69596    9.61125   -4.44133
       O   -15.87987   10.03079   -4.66617
      H1   -16.01694   10.91666   -4.27045
       H   -12.03979   11.66493  -10.11649
       O   -11.41026   11.14926   -9.59947
      H1   -10.57663   11.61404   -9.80682
       H   -16.89008   11.75308   -1.92142
       O   -17.43117   11.39221   -2.62534
      H1   -17.45448   10.48236   -2.34196
       H    -9.08741   17.01498   -7.76557
       O    -8.88260   16.14395   -8.15552
      H1    -9.27549   16.20077   -9.10663
       H    -7.12129   12.02667   -3.43295
       O    -6.27753   12.50739   -3.40243
      H1    -5.65003   11.76890   -3.48071
       H   -13.05238   15.99663   -4.32502
       O   -12.43525   15.44893   -3.79126
      H1   -11.98395   16.19219   -3.30730
       H    -9.02431   18.39331   -0.87917
       O    -9.63556   18.27789   -0.05808
      H1    -9.41949   17.42913    0.27805
       H   -15.74236   15.64902   -0.69212
       O   -16.13252   15.98252    0.13572
      H1   -15.37569   16.55453    0.45958
       H    -6.86281   13.53797   -6.11892
       O    -6.07327   13.95872   -5.76008
      H1    -6.15700   13.67354   -4.84522
       H   -12.37391   17.85513   -6.98719
       O   -11.74268   18.44036   -6.50427
      H1   -12.31413   18.63176   -5.75066
       H    -8.29228   14.42904   -1.56356
       O    -9.00379   14.58510   -2.21351
      H1    -9.19349   13.70696   -2.57539
       H   -10.69021   15.61822  -10.46165
       O   -10.04283   16.36209  -10.43822
      H1   -10.53354   17.21984  -10.57500
       H    -8.64443   12.86733   -9.96538
       O    -8.89876   12.34173   -9.18655
      H1    -9.21172   13.06090   -8.58497
       H   -16.40261   14.57201    0.90034
       O   -16.53995   13.60140    1.16677
      H1   -15.63550   13.38253    1.47852
       H    -9.14516   12.21648   -4.98143
       O    -9.06573   12.28773   -4.03902
      H1    -9.56762   11.55125   -3.64285
       H   -15.95575   18.43578    1.68674
       O   -16.47363   18.30330    2.47053
      H1   -17.26880   18.85219    2.18880
       H   -13.76299   15.56554   -0.84959
       O   -13.91420   14.80807   -1.45309
      H1   -13.38513   15.17392   -2.21910
       H   -11.50533   13.72071   -0.68643
       O   -10.81609   14.27695   -0.38280
      H1   -10.29139   14.32132   -1.19627
       H   -15.70708   12.59584   -8.99987
       O   -15.13895   13.25604   -9.34630
      H1   -14.61953   13.45079   -8.53894
       H   -13.55787   12.13472   -3.99531
       O   -12.86049   11.61147   -3.53121
      H1   -12.66093   10.98141   -4.17190
       H   -12.39208   13.49780   -6.88805
       O   -12.94666   13.72540   -7.66282
      H1   -12.29455   13.33473   -8.27668
       H   -15.52202   15.41709   -9.27364
       O   -15.88004   16.16370   -8.81155
      H1   -15.87444   15.88585   -7.90587
       H   -17.59281   11.27080   -9.32902
       O   -16.78988   11.28585   -8.83318
      H1   -17.09806   11.65606   -7.97767
       H   -13.82545   13.72701    1.95390
       O   -14.05813   12.96121    2.44423
      H1   -13.82992   13.16833    3.36668
       H    -7.66523   18.92242   -5.44223
       O    -6.84795   19.27301   -5.84262
      H1    -6.76991   19.97338   -5.13930
       H   -12.65269    9.43506   -5.17385
       O   -13.00755    8.69915   -4.60687
      H1   -13.93292    8.90769   -4.58219
       H   -13.24939    9.90709   -8.65685
       O   -13.78505   10.05176   -7.87844
      H1   -14.24523    9.16492   -7.87154
       H   -12.70486   15.51944   -7.81122
       O   -12.96546   16.45668   -7.83896
      H1   -13.55881   16.33447   -7.04350
       H   -17.37742   18.10382   -7.82019
       O   -17.98818   18.60136   -8.40133
      H1   -17.45838   18.80850   -9.16686
       H   -17.26927   18.25354   -2.19433
       O   -16.35566   17.94017   -2.15271
      H1   -16.35374   17.72587   -1.16079
       H    -6.53982   13.18786    0.02473
       O    -6.99120   13.66559   -0.72192
      H1    -6.42471   13.37564   -1.52701
       H   -11.96069   15.58700    1.13165
       O   -12.21415   15.38486    2.04471
      H1   -11.62817   14.61385    2.13909
       H   -18.89450   13.69099   -2.19808
       O   -18.30982   14.41751   -2.40208
      H1   -17.39277   14.02015   -2.42846
       H   -10.08602   10.58494   -1.43870
       O    -9.73719   10.28630   -2.30500
      H1    -8.79561   10.27763   -1.97754
       H   -12.10751   18.41452   -2.84712
       O   -11.64680   17.66049   -2.46746
      H1   -11.03333   18.15457   -1.85667
       H   -11.90420   14.14344   -4.65577
       O   -11.52554   13.57211   -5.34828
      H1   -11.77993   12.69636   -5.08063
       H    -9.66766   17.37166   -4.53702
       O    -9.54089   18.04199   -5.22226
      H1   -10.20942   17.88758   -5.87315

