180
frame 2 | Written by MDAnalysis XYZWriter (release 2.4.3)
       H    -2.44007    4.51202    4.36316
       O    -2.70177    4.63824    3.44592
      H1    -3.48145    5.21825    3.54357
       H    -3.63406    9.91850   -5.49230
       O    -4.12002    9.10464   -5.76461
      H1    -3.66551    8.76770   -6.53864
       H    -6.77236    2.45755   -5.19797
       O    -7.38091    3.20915   -5.20370
      H1    -7.19736    3.65652   -6.03236
       H    -5.76777    7.60594   -2.17054
       O    -6.63644    7.65948   -1.71104
      H1    -6.35943    7.79608   -0.77576
       H   -12.79120    9.32512   -2.10603
       O   -12.30996    8.54351   -2.37253
      H1   -12.83333    8.13225   -3.03407
       H    -2.24860    3.81554   -4.25278
       O    -1.40608    3.32453   -4.25627
      H1    -0.85953    3.97737   -3.73995
       H     0.05731    8.35133   -7.99358
       O    -0.67399    8.15024   -7.32388
      H1    -0.54643    8.96256   -6.74733
       H    -4.03269    4.57908   -3.66731
       O    -3.41586    5.18149   -4.11719
      H1    -3.74649    5.13243   -5.03810
       H    -6.80176   12.16957   -7.38268
       O    -7.14600   13.01155   -7.67007
      H1    -6.98606   13.54644   -6.91304
       H    -6.07568    4.38746   -2.40360
       O    -5.79469    3.67038   -2.96593
      H1    -6.21551    3.91832   -3.79910
       H    -0.83805    5.59677   -2.66774
       O    -0.05745    5.15018   -3.08365
      H1     0.56583    5.08533   -2.34508
       H    -4.01214    7.90803    3.12428
       O    -4.33248    8.66632    2.62292
      H1    -3.85698    9.36957    3.08304
       H    -3.60738   12.64077    0.37488
       O    -4.49323   13.06796    0.07406
      H1    -5.07016   12.52914    0.60413
       H    -8.78972    8.18682   -7.17960
       O    -8.14612    7.91324   -6.47631
      H1    -8.63273    7.33811   -5.89029
       H    -6.77480    5.83449   -9.02474
       O    -7.26009    6.63949   -9.30497
      H1    -7.66490    6.86009   -8.46368
       H    -7.35681    4.72664   -0.66665
       O    -6.46993    5.13239   -0.76613
      H1    -6.77636    5.97120   -1.25064
       H    -5.45238    6.81382    4.23232
       O    -5.06420    5.91736    4.04261
      H1    -5.24213    5.73739    3.08998
       H    -5.75220    8.57016    1.26120
       O    -6.47011    8.80538    0.66981
      H1    -7.17448    8.20809    0.88065
       H   -10.28281    8.05054    1.10339
       O   -11.09513    8.46529    0.81301
      H1   -11.67686    7.71193    0.76116
       H    -9.62456   11.74450   -1.50058
       O   -10.45636   11.23206   -1.43263
      H1   -10.54793   10.72977   -2.22340
       H    -5.86731   15.09126   -2.48405
       O    -5.16152   14.48445   -2.84720
      H1    -4.89254   14.08231   -1.96864
       H   -11.11640    6.07906    2.85293
       O   -10.55884    5.47189    2.29942
      H1   -11.33016    5.07022    1.79660
       H   -11.73509    9.56371   -6.21092
       O   -11.48227    8.91242   -5.54537
      H1   -10.78862    9.45534   -5.16645
       H    -0.51257   10.07855   -0.95499
       O    -0.92955    9.15311   -0.87251
      H1    -0.38589    8.82381   -1.65016
       H    -7.07914   10.84264    0.41371
       O    -7.17048   11.83877    0.36098
      H1    -6.98428   11.93553    1.30324
       H    -1.47898    5.88117    0.41455
       O    -1.91388    6.15829   -0.45743
      H1    -1.81843    7.11253   -0.57817
       H    -7.87518    9.03034    4.17615
       O    -8.84090    9.13502    4.08756
      H1    -8.93111   10.10062    3.95274
       H    -1.90272   13.04999   -5.34166
       O    -1.60545   12.50310   -4.63850
      H1    -2.23146   12.60307   -3.94473
       H    -6.09768    9.03160    5.33256
       O    -6.23262    8.50777    4.52474
      H1    -6.13989    9.20407    3.83605
       H    -8.80088    6.22353    2.15333
       O    -8.10335    6.64979    1.65092
      H1    -7.86074    6.02490    1.00152
       H    -8.51348   11.31579   -3.81818
       O    -8.35542   11.98915   -3.16045
      H1    -7.42990   11.83201   -3.00729
       H    -0.83383    8.91810    1.10590
       O    -0.67637    8.81723    2.07095
      H1    -0.83791    7.86076    2.11043
       H    -8.94722   14.79429   -4.88214
       O    -8.18120   14.25202   -5.19907
      H1    -8.11031   13.43662   -4.62679
       H     0.18125    5.77866    2.48891
       O    -0.65870    6.09994    2.16145
      H1    -1.33678    5.58828    2.65952
       H    -4.81320    7.88437   -4.19809
       O    -4.43371    7.52210   -3.38275
      H1    -4.01558    6.78357   -3.82070
       H    -9.49167    1.03219    1.28139
       O    -9.84302    1.85988    1.68204
      H1    -9.02011    2.34298    1.39054
       H    -6.94521    2.25595   -2.53730
       O    -7.45996    1.63900   -1.97182
      H1    -6.82482    1.48528   -1.24743
       H    -5.31408    4.24839   -6.94627
       O    -6.04041    4.45294   -7.53152
      H1    -5.64889    4.22310   -8.37171
       H   -10.61963    7.04093   -4.83103
       O    -9.86519    6.45253   -4.87032
      H1    -9.72781    6.16059   -3.94866
       H    -3.54379    3.25673   -0.97276
       O    -3.31066    3.41398   -0.03569
      H1    -2.77244    4.24652   -0.11873
       H    -3.28445    8.85793   -3.12378
       O    -2.88518    9.72013   -3.00380
      H1    -2.29084    9.57939   -2.24747
       H    -4.08256   10.69337   -8.56199
       O    -4.16815    9.73750   -8.75969
      H1    -4.94417    9.69019   -9.29197
       H    -5.79346   11.24868   -1.68445
       O    -5.83049   10.92523   -2.61783
      H1    -4.89589   10.63546   -2.77610
       H    -8.41997    2.93737   -1.08349
       O    -8.74517    3.62943   -0.44985
      H1    -9.29543    4.21681   -0.98895
       H    -8.50854    9.23514   -5.10490
       O    -9.16189    9.67836   -4.53929
      H1    -9.00549    9.27513   -3.66821
       H     0.03159    6.17131   -5.19891
       O     0.82434    6.63371   -5.41659
      H1     0.48219    7.10557   -6.18473
       H    -8.27048    8.33647   -1.94389
       O    -9.25837    8.49639   -2.06966
      H1    -9.52033    8.99754   -1.28968
       H    -5.58937   11.93087   -4.87171
       O    -5.34823   12.78191   -5.23765
      H1    -5.61482   13.47547   -4.63433
       H    -2.11304    7.65905   -8.17804
       O    -2.93055    7.29762   -8.57076
      H1    -3.47258    8.11774   -8.63776
       H    -2.63099   11.56826    1.94764
       O    -2.16026   11.94864    1.14155
      H1    -1.32862   12.32430    1.49739
       H    -2.63348    4.68957   -7.05250
       O    -3.37875    5.20267   -6.81829
      H1    -3.50610    5.94100   -7.50974
       H     0.86984    7.70712   -3.43019
       O     0.94511    8.35158   -2.71997
      H1     1.45723    7.79905   -2.15375
       H    -5.01440    0.76952    0.26230
       O    -5.94923    1.03929    0.21969
      H1    -6.15443    1.17149    1.14524
       H    -3.21677    0.74238    1.34490
       O    -3.14643    0.84838    0.42466
      H1    -2.91399    1.81757    0.35583
       H   -10.80101    5.83395   -1.89446
       O    -9.83328    5.74178   -2.14380
      H1    -9.58813    6.66253   -2.13724
       H    -3.47472   12.10396    4.06962
       O    -3.38046   11.34037    3.49903
      H1    -2.76165   10.87831    4.08489
       H    -5.71270   10.04428   -6.96210
       O    -6.58364   10.11681   -7.28948
      H1    -6.95462    9.32858   -6.85513
       H    -8.98031    3.54138   -5.51070
       O    -9.86798    3.90547   -5.78547
      H1    -9.77864    4.88577   -5.73362
       H    -5.86327    4.39235    0.61325
       O    -5.57136    4.41111    1.52380
      H1    -4.67903    4.03383    1.45122
       H     0.12931   11.17927   -6.72202
       O    -0.04862   10.49326   -6.04716
      H1    -0.84972   10.89200   -5.64570

