180
frame 2 | Written by MDAnalysis XYZWriter (release 2.4.3)
       H   -18.71949   -8.24922  -14.08446
       O   -18.42382   -7.48770  -13.52101
      H1   -17.74719   -7.01448  -14.00358
       H   -10.75386   -5.83236  -19.49693
       O   -11.08245   -6.57651  -19.01913
      H1   -11.00471   -7.26137  -19.66804
       H   -12.48923  -15.06866  -13.53864
       O   -11.97247  -15.37571  -14.34657
      H1   -12.34579  -16.30598  -14.40029
       H   -17.19128   -3.75196  -14.90789
       O   -16.41908   -3.86499  -15.51116
      H1   -16.75366   -3.69753  -16.37922
       H   -11.53325   -8.92010  -11.04138
       O   -11.98365   -9.47536  -11.69235
      H1   -12.23111  -10.24748  -11.14858
       H   -11.59015   -2.07310  -16.50538
       O   -12.18992   -1.34461  -16.58961
      H1   -12.89133   -1.59808  -15.90376
       H    -8.21402  -11.64093  -13.63476
       O    -8.03045  -12.36411  -14.29449
      H1    -7.82797  -11.91531  -15.12704
       H    -9.90007   -9.28512  -15.68756
       O    -9.31641   -8.64952  -15.43676
      H1    -8.77146   -9.01870  -14.73195
       H    -8.76151   -5.69019  -12.23451
       O    -9.26533   -5.96162  -13.00306
      H1    -9.45518   -5.12249  -13.53042
       H   -11.21998   -5.96153  -12.28395
       O   -11.80069   -5.66581  -11.54337
      H1   -12.58504   -6.15104  -11.75042
       H   -15.24786   -2.96562  -19.02111
       O   -15.92559   -3.64900  -18.87218
      H1   -15.32635   -4.48107  -18.85207
       H   -11.82202  -11.26709  -18.72221
       O   -12.54574  -11.27402  -19.35273
      H1   -13.12717  -10.53015  -19.13581
       H   -17.54854  -18.37062  -18.84166
       O   -18.04401  -17.82023  -18.16688
      H1   -17.78025  -16.90932  -18.41690
       H   -13.06001  -18.90520  -17.74309
       O   -13.84181  -18.31148  -17.53753
      H1   -13.59530  -17.62456  -18.12404
       H   -16.77206   -7.71647   -9.54332
       O   -16.48060   -8.06701  -10.39835
      H1   -16.03535   -8.90744  -10.06962
       H   -17.80897   -7.06146  -18.24904
       O   -17.74909   -6.55679  -17.43298
      H1   -17.24272   -7.15763  -16.83379
       H   -10.59986  -11.38033  -17.07347
       O   -10.52923  -10.49030  -17.48966
      H1    -9.60539  -10.52070  -17.80926
       H    -9.11220  -16.04432  -17.31500
       O    -8.54150  -15.54873  -16.72132
      H1    -8.92582  -14.69454  -16.71478
       H   -15.90219  -12.81222  -13.70549
       O   -15.85940  -13.22356  -12.84520
      H1   -15.11071  -13.84954  -12.96092
       H   -13.96098   -2.15462  -19.73756
       O   -13.36225   -2.29539  -19.00217
      H1   -13.52857   -1.57329  -18.43927
       H   -16.54454  -13.20747  -15.87203
       O   -15.56444  -13.38422  -15.78063
      H1   -15.73105  -14.40975  -15.69400
       H   -10.70663   -3.40898  -14.01965
       O    -9.79160   -3.62701  -14.23965
      H1    -9.58472   -3.39896  -15.14108
       H   -14.22055  -12.35161  -16.13611
       O   -13.46026  -11.85437  -16.49404
      H1   -13.04944  -11.45739  -15.70478
       H   -10.51655  -12.00562  -12.62940
       O   -10.41826  -11.30673  -13.32964
      H1   -10.74053  -10.49738  -12.83395
       H   -16.12766   -9.18144  -12.75787
       O   -15.35498   -8.74509  -13.05786
      H1   -15.02798   -8.33920  -12.25130
       H   -14.90938  -10.77541   -9.86835
       O   -15.38311  -10.19997   -9.26166
      H1   -14.76300   -9.77718   -8.59964
       H   -17.97234  -11.52439  -19.12674
       O   -17.31516  -11.21079  -18.50401
      H1   -17.62364  -11.61763  -17.69220
       H   -14.94232  -11.67030  -12.29151
       O   -14.30131  -10.98599  -11.96554
      H1   -14.73449  -10.20765  -12.35309
       H    -9.53978  -12.74557  -15.27601
       O    -9.96155  -13.00854  -16.11177
      H1   -10.78570  -13.41739  -15.84847
       H   -13.45462  -15.25203  -17.99417
       O   -13.91917  -15.63575  -18.80863
      H1   -14.60502  -14.94901  -18.90980
       H   -12.75031   -9.26437  -13.77668
       O   -12.45229   -9.05069  -14.65700
      H1   -11.51354   -9.24230  -14.60463
       H   -13.45209  -13.83040  -11.26137
       O   -13.35421  -14.53125  -11.99267
      H1   -13.34729  -15.34480  -11.51549
       H   -15.79645  -17.24020  -14.52692
       O   -15.97685  -17.65701  -13.59491
      H1   -16.15797  -18.60116  -13.87047
       H   -17.00385   -9.36059  -19.50286
       O   -17.13695   -8.40297  -19.64884
      H1   -16.29763   -8.05261  -19.38652
       H   -15.52257   -2.99001  -13.25696
       O   -15.42852   -3.91726  -12.99333
      H1   -14.89985   -4.36586  -13.68912
       H    -9.50080   -7.05281  -18.08526
       O    -8.60139   -7.45358  -17.94725
      H1    -8.81100   -7.75022  -17.01756
       H   -14.34734   -9.16106  -17.62158
       O   -14.48707   -9.95561  -18.11601
      H1   -14.08496  -10.66269  -17.58947
       H    -6.14859  -10.54665  -16.41658
       O    -6.81920  -11.32137  -16.35147
      H1    -7.19031  -11.46962  -17.21025
       H   -18.26417   -4.21655  -18.17242
       O   -18.54098   -3.37900  -17.70507
      H1   -19.09992   -3.74574  -17.01418
       H    -8.31523   -9.26560  -18.83944
       O    -8.33276  -10.20595  -18.90311
      H1    -7.39135  -10.31279  -19.28057
       H   -17.95041  -11.37383  -12.34893
       O   -17.53588  -10.53744  -12.37662
      H1   -18.20527   -9.96064  -11.94646
       H   -18.47249  -15.17174  -19.21290
       O   -17.62630  -14.87826  -18.82040
      H1   -17.03161  -14.66063  -19.51617
       H   -16.38861   -8.73205  -16.08221
       O   -17.02955   -9.41801  -16.31067
      H1   -16.57076   -9.87056  -17.04587
       H   -12.98673   -4.06710  -12.85176
       O   -12.52082   -3.56569  -13.51536
      H1   -12.49979   -4.22906  -14.23463
       H   -17.10821  -14.35664  -12.06717
       O   -17.65261  -14.97832  -11.52414
      H1   -17.67772  -14.40526  -10.69318
       H   -15.43336   -6.31447  -15.18496
       O   -16.05631   -7.10120  -15.15466
      H1   -15.64407   -7.58490  -14.44631
       H   -13.00716  -13.54697  -16.87686
       O   -12.61029  -14.47563  -16.84057
      H1   -12.89434  -14.82909  -15.94451
       H   -15.79613   -6.58976  -17.98882
       O   -15.37393   -6.62669  -18.83348
      H1   -14.41174   -6.90705  -18.66243
       H   -14.06853  -12.30752  -19.15353
       O   -14.83982  -12.94539  -19.38079
      H1   -15.64197  -12.43531  -19.03834
       H   -10.67525  -16.67861  -19.33933
       O   -10.02833  -16.88682  -18.60536
      H1    -9.64246  -17.70891  -18.87217
       H   -13.63504   -4.74976  -15.77662
       O   -13.92711   -5.35662  -15.06355
      H1   -13.51385   -6.19417  -15.44805
       H   -16.37503  -16.40008  -16.41273
       O   -15.62524  -16.12358  -15.88500
      H1   -14.99296  -16.25991  -16.58482
       H   -12.73146   -5.06936  -17.90233
       O   -12.56854   -4.42845  -17.22824
      H1   -12.78749   -3.63821  -17.76145
       H   -15.67314   -6.56255  -11.00667
       O   -14.88159   -6.09045  -11.32683
      H1   -15.26575   -5.42774  -11.87742
       H    -9.16660  -16.12903  -15.15967
       O    -9.34610  -16.56612  -14.28115
      H1   -10.09027  -16.01226  -14.08175
       H   -18.19339  -13.73587  -17.67037
       O   -18.10492  -13.12092  -16.93913
      H1   -18.99897  -13.16442  -16.58563
       H   -15.31394   -2.47832  -15.67452
       O   -14.77721   -1.65949  -15.73074
      H1   -14.85443   -1.22074  -14.88854
       H   -12.64981   -7.89483  -16.24355
       O   -12.92577   -7.28694  -16.96471
      H1   -12.04313   -7.10784  -17.22367
       H   -19.89603   -5.65464  -11.58169
       O   -19.22973   -6.10957  -11.00254
      H1   -18.88403   -6.82872  -11.49513
       H    -7.34810   -6.77088  -14.53370
       O    -6.73689   -6.12789  -14.99664
      H1    -6.05774   -6.72253  -15.32812

