180
frame 8 | Written by MDAnalysis XYZWriter (release 2.4.3)
       H     3.38256  -11.60638   17.84409
       O     3.71281  -10.71024   18.16273
      H1     3.44393  -10.67833   19.10821
       H    -0.10630  -13.29666   18.35348
       O     0.37574  -12.51072   18.71280
      H1     0.32150  -11.98340   17.87919
       H     4.62383  -11.19342   12.28892
       O     3.66893  -11.48020   12.29017
      H1     3.62971  -11.82597   11.37815
       H    -2.19308   -5.75927   17.56420
       O    -1.66051   -5.28418   18.19472
      H1    -1.11408   -4.71769   17.67523
       H     1.68673   -8.70979   14.38587
       O     1.23555   -8.16785   13.71308
      H1     0.83292   -8.90026   13.17066
       H    -6.99904  -11.65945   15.83485
       O    -6.13464  -11.30243   15.68711
      H1    -6.06310  -11.17353   14.74998
       H    -6.87925   -8.33220   11.46517
       O    -6.51709   -8.00392   10.61940
      H1    -7.26470   -7.44117   10.22356
       H    -5.78071   -4.29245   16.55788
       O    -5.53542   -4.63113   15.68071
      H1    -5.93918   -3.96321   15.08567
       H     1.46953   -9.15883    8.34877
       O     1.65542   -8.55766    7.63031
      H1     0.85436   -8.04012    7.67354
       H    -5.50996  -13.64275   12.39658
       O    -4.65331  -13.89503   12.90601
      H1    -4.45453  -13.08352   13.47249
       H    -0.97428   -2.45411   10.52618
       O    -1.06779   -3.40357   10.41363
      H1    -1.46365   -3.39217    9.54752
       H    -7.74861   -9.67762   13.21417
       O    -7.62492   -8.79561   12.83607
      H1    -8.54889   -8.54574   12.70763
       H    -4.82820  -10.91457   12.82458
       O    -4.27701  -11.03472   13.64794
      H1    -3.42860  -11.29910   13.30949
       H    -2.76442   -7.94866   16.16618
       O    -3.34846   -7.30216   16.58181
      H1    -4.03580   -7.89883   16.92754
       H    -0.20582   -5.99988    7.43625
       O    -0.47242   -6.98644    7.52569
      H1    -0.69264   -6.98775    8.47424
       H    -2.74712  -11.74681   17.37598
       O    -2.71270  -11.95881   16.41381
      H1    -2.84177  -11.09427   15.99470
       H    -5.18269   -5.81838   17.40084
       O    -5.41400   -5.62334   18.31340
      H1    -6.38210   -5.62006   18.29175
       H     6.15391   -5.30187   16.99275
       O     5.40529   -5.85165   17.07437
      H1     4.77533   -5.46010   16.39168
       H     0.55428   -6.70959   17.83778
       O     1.36251   -7.16844   18.05725
      H1     1.52897   -7.69910   17.31243
       H     3.59590   -8.16427    9.23018
       O     4.07403   -7.31448    9.39852
      H1     3.39046   -6.66506    9.19924
       H     4.89356   -7.96527   11.81853
       O     5.58210   -8.55176   12.20229
      H1     6.19682   -7.97052   12.68542
       H    -7.21327   -7.83797   14.25785
       O    -7.06256   -7.14858   14.93128
      H1    -6.17789   -6.80101   14.71656
       H    -5.12702   -9.69886   17.91994
       O    -5.11483   -9.09049   17.14274
      H1    -5.34561   -9.61744   16.37831
       H    -3.63593   -7.96528    9.45935
       O    -4.19355   -8.82997    9.46479
      H1    -4.96982   -8.41948    9.92856
       H    -2.17227   -1.22040   16.55766
       O    -2.84483   -1.86287   16.78631
      H1    -2.42573   -2.77250   16.79143
       H    -1.36559  -12.73917   11.54756
       O    -2.01806  -12.06125   11.68350
      H1    -1.46092  -11.27247   11.76787
       H    -6.21933  -14.09053   18.01535
       O    -5.92321  -13.13048   18.13070
      H1    -6.05369  -12.90877   17.17499
       H     0.14801   -9.84678   10.87644
       O    -0.46553   -9.60844   11.59934
      H1    -0.58261   -8.64282   11.37316
       H     0.01539  -11.27805    8.94510
       O     0.78618  -10.74023    9.18413
      H1     1.38445  -11.49866    9.42149
       H     3.23274  -13.31548   18.91350
       O     2.83350  -13.26847   18.01266
      H1     1.96695  -12.94703   18.32740
       H    -2.08693  -15.00730   18.73940
       O    -1.43185  -14.52545   18.19160
      H1    -1.96678  -14.09956   17.52072
       H     0.03334   -2.26784   13.08654
       O    -0.76744   -2.79144   13.13209
      H1    -0.60040   -3.43193   12.42222
       H     3.01328  -12.53438   14.18400
       O     3.15050  -12.26423   15.08442
      H1     2.53756  -12.90543   15.51165
       H    -6.81310   -4.96388   11.65454
       O    -6.35331   -5.68392   12.06417
      H1    -6.43325   -6.33993   11.34924
       H     3.60422   -6.14877   13.11093
       O     3.27332   -6.90075   12.56216
      H1     2.47125   -7.27466   12.95132
       H    -4.66158  -15.06696   16.63633
       O    -3.72796  -14.96819   16.50201
      H1    -3.61717  -13.98985   16.33681
       H     3.00932   -9.46973   17.18663
       O     2.41916   -9.03055   16.52380
      H1     3.15837   -8.99481   15.85280
       H     5.46735  -10.01672   15.55466
       O     6.16597  -10.39923   16.12018
      H1     5.74560  -10.77456   16.90174
       H     4.48794   -9.33183   13.63428
       O     4.15193   -9.60034   14.48148
      H1     3.58345  -10.35174   14.33203
       H     1.55743  -15.06174   16.14146
       O     1.15061  -14.35948   15.57210
      H1     0.82586  -14.98081   14.87077
       H     2.16628   -3.07648   12.02524
       O     2.20508   -2.48270   12.74523
      H1     2.13984   -1.61170   12.27368
       H    -2.69897   -1.84195   13.85258
       O    -3.60843   -1.77774   14.10870
      H1    -3.45150   -1.60258   15.06199
       H    -1.97644  -10.52175   18.65427
       O    -1.97721  -11.36853   19.11720
      H1    -1.02537  -11.60137   18.97142
       H    -3.32966  -15.49999   15.06201
       O    -2.99055  -15.82898   14.16917
      H1    -3.56023  -15.21557   13.68020
       H     1.15055   -4.89465   12.54658
       O     1.29689   -5.03599   11.55217
      H1     2.04670   -5.63333   11.41717
       H     0.59787   -3.99091   16.01971
       O     0.08368   -3.65093   16.77309
      H1     0.76197   -3.12678   17.17389
       H    -0.23661   -6.77497   13.18697
       O    -1.15957   -6.48429   12.99943
      H1    -1.39918   -5.87753   13.71641
       H    -0.76170  -11.99164   14.29834
       O     0.07109  -11.59540   14.30083
      H1     0.64018  -12.27832   13.97232
       H    -7.27501   -8.63518   19.34877
       O    -7.69142   -8.33901   18.55573
      H1    -6.99688   -8.34154   17.86221
       H     1.76224   -4.25315   13.91431
       O     0.85835   -4.62443   14.13591
      H1     0.28133   -3.85541   14.19151
       H    -0.94222   -9.75704   15.82372
       O    -1.59559   -9.21080   15.40196
      H1    -1.11453   -8.73594   14.68475
       H     0.37677  -11.20548   15.87618
       O     0.57567  -10.86810   16.77698
      H1     1.33635  -10.27683   16.54715
       H    -1.94201  -12.20533    9.25609
       O    -1.74026  -11.97428    8.35684
      H1    -1.54804  -12.84584    8.00151
       H    -3.44227   -5.18032   11.59211
       O    -4.11826   -5.19426   10.89766
      H1    -4.93646   -5.28611   11.40619
       H     2.53692   -5.74187   18.29982
       O     3.03216   -4.90536   18.29724
      H1     3.89684   -5.33790   18.16179
       H     4.04535   -3.89247   15.14176
       O     4.19567   -4.79755   14.83408
      H1     5.03947   -4.67502   14.40732
       H    -0.77802  -15.48309   12.98069
       O    -0.73768  -14.80130   12.31267
      H1    -0.51084  -15.35473   11.57678
       H    -4.56142  -10.58471   10.25135
       O    -4.61573  -11.25131   10.95973
      H1    -3.69056  -11.44669   11.01141
       H    -0.00305   -6.38262   10.55856
       O    -0.75032   -6.99904   10.34757
      H1    -1.36486   -6.75730   11.06491
       H    -3.00175   -5.67334   15.53502
       O    -2.60501   -4.80621   15.40037
      H1    -3.30848   -4.31110   15.00143

