180
frame 1 | Written by MDAnalysis XYZWriter (release 2.4.3)
       H   -18.53864  -16.75397    7.26482
       O   -19.39553  -16.45558    7.64606
      H1   -19.04992  -15.68984    8.17906
       H   -16.95909  -17.67298    7.01063
       O   -17.36759  -17.92551    6.14894
      H1   -17.87292  -18.66939    6.44837
       H   -17.21087   -7.08745   -0.02207
       O   -17.08585   -6.24368    0.47882
      H1   -16.52352   -6.60441    1.17526
       H   -19.68320  -12.20792   -0.63952
       O   -19.15361  -12.98750   -0.92631
      H1   -19.13589  -12.80375   -1.89426
       H   -10.16961  -14.65967    0.78805
       O   -10.21790  -13.71330    0.57495
      H1    -9.50018  -13.14217    0.89395
       H   -14.25423  -16.81127    5.62318
       O   -14.26732  -17.39465    6.36392
      H1   -13.58495  -17.02360    6.91531
       H   -10.34255  -16.09130    4.42347
       O    -9.72535  -15.35195    4.27496
      H1   -10.21950  -14.70123    3.77062
       H   -12.44877  -15.49992    6.15191
       O   -12.47448  -15.40050    7.13125
      H1   -12.17653  -14.47471    7.24936
       H   -19.15492  -12.40381    2.79166
       O   -19.47565  -11.95786    2.01412
      H1   -19.48749  -11.06068    2.32240
       H   -15.04449  -18.53985    3.45603
       O   -14.18323  -18.87122    3.82357
      H1   -14.38711  -19.23584    4.69595
       H   -16.24504  -12.43590   -1.21654
       O   -16.54893  -13.07010   -0.53475
      H1   -17.49609  -12.94329   -0.60734
       H   -18.00792  -13.57483    6.47278
       O   -18.53193  -12.80577    6.49378
      H1   -18.16590  -12.32285    7.27722
       H   -12.89842  -10.96985   -1.20763
       O   -13.48986  -11.03020   -0.42363
      H1   -13.62841  -11.99784   -0.37594
       H   -19.31936   -9.49381    6.74674
       O   -18.36095   -9.30339    6.88797
      H1   -18.21585   -8.49513    6.46036
       H   -18.07662   -8.31097    4.18211
       O   -17.75560   -7.40596    4.30375
      H1   -18.23701   -6.78296    3.71557
       H   -17.22987  -10.95264    9.61209
       O   -16.95919  -11.17307    8.74506
      H1   -17.48485  -10.57502    8.19783
       H   -16.33402   -7.71069    3.18540
       O   -15.74641   -7.28712    2.53658
      H1   -15.20534   -7.94768    2.11232
       H   -16.09463  -14.48878    9.25459
       O   -15.22177  -14.63524    8.96837
      H1   -15.16774  -15.59613    8.86201
       H   -12.47870  -16.22054    3.65034
       O   -12.20743  -16.52991    4.52791
      H1   -12.46811  -17.48383    4.45002
       H   -19.31324  -13.61224   -4.19032
       O   -19.06405  -12.79644   -3.65097
      H1   -18.72139  -12.25339   -4.37351
       H   -10.35787  -17.66402    9.46689
       O   -10.99950  -17.58198    8.74153
      H1   -11.44010  -16.73034    8.83287
       H   -18.44234  -10.64421   12.18958
       O   -17.84144  -11.04742   11.58309
      H1   -17.81179  -11.98633   11.85377
       H   -18.60954  -15.01800   -6.37851
       O   -17.85365  -14.52107   -6.69545
      H1   -17.16897  -15.17763   -6.71253
       H   -17.20153  -17.57366    9.38041
       O   -16.42692  -17.51763    8.74633
      H1   -15.88304  -18.08085    9.25592
       H   -15.01132  -11.60164    8.72744
       O   -14.14299  -11.95969    8.58863
      H1   -14.23349  -12.91552    8.47354
       H   -14.13534  -14.22715    0.15122
       O   -13.86116  -13.77822   -0.68527
      H1   -14.81020  -13.54667   -0.85920
       H   -14.50400  -17.25227   11.70330
       O   -14.72253  -16.76987   12.48802
      H1   -15.65113  -16.51502   12.45397
       H   -17.57391  -17.84348   -2.15576
       O   -17.99736  -17.83192   -3.03711
      H1   -17.93790  -18.72466   -3.34835
       H   -17.49384  -11.26002    1.66862
       O   -16.65179  -10.91708    1.30460
      H1   -16.37790  -11.65230    0.76220
       H   -18.06609  -14.07993   10.75290
       O   -18.02912  -14.13357    9.78246
      H1   -18.44968  -13.22094    9.58655
       H   -10.35250  -10.81458    3.69798
       O   -10.68145  -11.45217    4.34698
      H1    -9.95860  -12.12500    4.25492
       H   -12.92011  -14.96575   11.28754
       O   -12.78712  -14.48475   10.45565
      H1   -13.71439  -14.52769   10.03555
       H   -13.77925   -9.70878    1.25411
       O   -14.36352   -9.59467    2.07401
      H1   -15.12319  -10.17267    1.79239
       H   -11.63780  -12.78561   -1.12656
       O   -11.55560  -12.21376   -1.88696
      H1   -10.62703  -11.93229   -1.86425
       H   -14.50005  -14.49087    3.57410
       O   -14.86621  -15.20206    4.13013
      H1   -15.16034  -14.65127    4.83636
       H   -15.74715  -15.05979   -3.21576
       O   -15.18869  -15.72584   -2.76702
      H1   -14.52131  -15.22424   -2.25727
       H   -11.46226  -12.10560    5.92558
       O   -11.90714  -12.30303    6.76364
      H1   -12.79573  -12.00067    6.66501
       H   -15.89961  -16.64264   -1.55949
       O   -16.40695  -17.07109   -0.83263
      H1   -16.96292  -16.29680   -0.61414
       H   -15.44130  -14.19697    7.13965
       O   -15.83789  -13.87621    6.29938
      H1   -15.32870  -13.02694    6.15249
       H   -14.87932  -17.50056   -0.22288
       O   -13.90616  -17.85499   -0.30458
      H1   -13.86259  -18.18764   -1.28936
       H   -17.56661  -18.21646    2.21392
       O   -18.18023  -18.94170    2.22360
      H1   -17.77897  -19.53443    1.54536
       H   -18.62580   -9.01667    0.01308
       O   -17.71907   -8.87127   -0.33745
      H1   -17.25707   -9.63437    0.09563
       H   -16.23746  -11.62006    4.53724
       O   -15.56043  -11.32136    5.09858
      H1   -14.85278  -11.25357    4.43800
       H   -18.21339  -18.90573   11.34165
       O   -18.58730  -18.44494   10.56971
      H1   -19.43983  -18.95186   10.62406
       H   -12.58157  -17.11010    1.20849
       O   -11.72543  -17.11002    1.75865
      H1   -11.57973  -17.98048    2.03017
       H   -17.52267  -16.73497   13.49973
       O   -17.35460  -16.38832   12.61242
      H1   -18.27248  -16.32559   12.34933
       H   -10.33582  -16.67781    1.09328
       O    -9.50199  -16.61527    0.57354
      H1    -8.87781  -17.04397    1.22442
       H   -17.19043  -13.55083    4.89132
       O   -17.34656  -13.36501    3.89424
      H1   -17.72214  -14.06785    3.43166
       H   -13.57563   -9.22653    6.20292
       O   -14.16747   -8.65828    5.67964
      H1   -14.97214   -9.19797    5.55915
       H   -12.47425  -11.43426    3.70180
       O   -13.36615  -11.77285    3.40957
      H1   -13.56506  -10.91310    2.91958
       H   -14.55137  -19.45319   10.26208
       O   -14.42819  -18.50666   10.35261
      H1   -13.48257  -18.50643   10.24234
       H   -18.76738  -14.69326    0.17680
       O   -18.56336  -15.59708    0.10187
      H1   -18.83360  -15.98728    0.91978
       H   -13.42279  -18.32057   -3.33581
       O   -13.73642  -19.06614   -2.81253
      H1   -14.63702  -19.22970   -3.17813
       H   -15.65477  -12.29630   -3.35020
       O   -15.27074  -11.63304   -2.76078
      H1   -14.37188  -11.62599   -3.10880
       H   -15.76224  -16.69109    3.76453
       O   -16.37834  -17.38275    3.43677
      H1   -16.65566  -17.84877    4.24220
       H   -12.25880  -14.09013    1.46788
       O   -13.04446  -14.21967    2.00816
      H1   -13.15559  -13.29951    2.40924
       H   -18.04869  -16.25197    3.27100
       O   -18.90656  -15.86622    2.96695
      H1   -19.66608  -15.95163    3.54761
       H   -16.91275  -17.83890   -4.66523
       O   -16.82283  -17.42916   -5.51820
      H1   -15.86295  -17.22898   -5.55813
       H   -18.61280   -7.68256    9.44718
       O   -19.54434   -7.80124    9.33978
      H1   -19.60080   -7.92784    8.40500
       H   -16.43590  -13.96207   -5.49404
       O   -15.85845  -13.56082   -4.81962
      H1   -15.37210  -12.98477   -5.41557

