180
frame 11 | Written by MDAnalysis XYZWriter (release 2.4.3)
       H     4.94908    5.48900   19.22967
       O     4.43360    4.76191   18.82466
      H1     3.51398    5.07972   18.85396
       H    -0.16785    2.57918   13.62981
       O    -0.66597    2.90543   14.39281
      H1    -0.85625    3.77403   13.96983
       H     6.24825    2.99045   17.07905
       O     6.51892    3.85237   16.90427
      H1     6.32859    4.31279   17.72943
       H    -6.52580    3.99665   12.59892
       O    -5.92567    4.73464   12.90249
      H1    -5.97800    4.52624   13.89051
       H    -4.41663    5.70304   12.34061
       O    -3.54405    6.01100   12.62558
      H1    -3.41234    6.69015   11.93448
       H     3.37466    8.09950   14.28948
       O     2.52330    7.76642   14.69781
      H1     2.54398    6.89951   14.33578
       H    -7.20492    6.20182   18.38970
       O    -6.96576    5.81210   19.19976
      H1    -6.02458    5.98983   19.16683
       H    -3.28354    5.73967   18.08263
       O    -2.79864    5.12217   17.56299
      H1    -1.94285    5.17229   17.95166
       H     0.02246    3.83859   17.78892
       O    -0.02206    4.43056   17.02714
      H1    -0.41583    3.85042   16.30298
       H     2.45567   10.94405   13.36752
       O     2.81521   11.68189   13.89444
      H1     2.21992   11.79397   14.64919
       H     4.09908   -0.30013   18.40434
       O     4.04480   -0.76703   19.28222
      H1     3.42006   -0.34071   19.86475
       H    -1.28093    9.28465   18.88741
       O    -1.87272   10.05297   19.09609
      H1    -2.38595    9.97202   18.31293
       H    -0.15645    3.32378   10.06365
       O     0.52327    3.77727   10.59457
      H1     0.01016    4.60633   10.54199
       H    -0.75463    0.94951   15.21007
       O    -0.81443    0.46494   16.04146
      H1    -1.56342    0.93681   16.46255
       H     1.85312    3.79325    9.50646
       O     2.79787    3.54912    9.24377
      H1     3.26626    3.88508   10.02866
       H     1.96647   -1.81380   17.97099
       O     2.00124   -2.80238   17.97592
      H1     2.93390   -2.98397   18.28778
       H     6.43789    6.05579   11.76732
       O     5.69160    6.34223   11.19431
      H1     5.04726    5.67068   11.51151
       H     1.57535    0.30835   11.88127
       O     1.58671   -0.62969   11.64112
      H1     2.04120   -0.74288   10.77157
       H    -1.85916    1.78352   13.43147
       O    -2.31696    1.11310   12.99257
      H1    -3.16991    1.09066   13.36223
       H    -2.33507    2.89002   10.23702
       O    -2.70486    3.67222   10.69370
      H1    -2.94187    3.28440   11.56572
       H     3.02821    4.64086   12.31553
       O     3.71303    4.45314   11.63852
      H1     4.24417    3.80663   12.18713
       H    -8.50260    3.11498   15.93692
       O    -7.71887    3.42492   15.44232
      H1    -7.02842    2.78389   15.62089
       H     0.43295   -0.04061   17.05165
       O     1.13449   -0.06742   17.76316
      H1     1.70834    0.61172   17.30600
       H    -0.02996    9.27832   14.82802
       O     0.48145    9.07024   15.65536
      H1     1.27616    8.63240   15.27645
       H    -1.60724   -1.56381   16.44515
       O    -2.15524   -2.31959   16.25882
      H1    -1.62777   -3.01835   16.65762
       H     1.60846   12.53390   16.37181
       O     1.01673   11.85682   15.93325
      H1     1.26217   11.07556   16.39624
       H     4.16857    5.86632   16.37556
       O     4.33362    5.07976   15.84163
      H1     5.06522    4.67867   16.37023
       H    -4.30139   -1.68622   18.75039
       O    -3.94772   -1.15548   17.96797
      H1    -3.35420   -1.89238   17.58335
       H    -1.62596    9.30673   12.71638
       O    -0.75384    9.63880   12.81553
      H1    -0.37967    8.89891   12.35876
       H     5.97053    7.02508   16.59175
       O     6.47315    7.40051   17.35105
      H1     6.91728    6.63171   17.62180
       H     0.92053    5.94383   18.43760
       O     1.72681    5.68548   18.89350
      H1     1.52494    6.18043   19.71983
       H     2.84683    6.62570   17.76167
       O     3.50591    7.17244   17.29791
      H1     3.02329    7.20036   16.40584
       H    -4.06857    8.82187   11.25494
       O    -3.23304    8.34851   11.01800
      H1    -3.08876    8.50478   10.08878
       H     6.53096    0.53092   16.86479
       O     5.90423    1.15408   17.25809
      H1     6.18525    1.19155   18.15985
       H     0.40854    1.47878   18.30457
       O    -0.01692    2.27748   18.67628
      H1    -0.85444    1.82436   18.82807
       H     3.79482    2.27843   16.99177
       O     2.90780    2.04693   17.35951
      H1     3.03187    2.39432   18.25063
       H    -6.41126    6.23838   16.15508
       O    -7.27500    6.01130   16.51004
      H1    -7.38764    5.07421   16.43652
       H    -3.10062    1.28606   19.84691
       O    -2.77736    1.11087   18.93314
      H1    -3.05102    0.17972   18.83064
       H    -5.46502   -0.19869   13.21235
       O    -5.05037    0.71415   13.06340
      H1    -5.38622    0.87890   12.20352
       H    -4.39342    7.06920   15.03957
       O    -5.14049    7.20564   14.41889
      H1    -4.79598    6.83379   13.55702
       H     4.60529   10.05781   14.07121
       O     4.62281    9.16817   13.73232
      H1     4.35868    9.32636   12.81932
       H     3.02435   -0.99225   14.79584
       O     3.23226   -0.62026   15.64151
      H1     4.21761   -0.59920   15.64844
       H    -2.72796    2.75794   17.50983
       O    -2.91966    2.66029   16.54596
      H1    -2.95347    3.58689   16.33630
       H     1.69622    2.47645   13.19282
       O     0.99445    2.14553   12.56901
      H1     1.09067    2.77150   11.79241
       H     0.22499    8.69101   18.95817
       O    -0.18586    8.13777   18.28226
      H1     0.16634    8.44574   17.42756
       H    -2.64884    6.79831   16.70301
       O    -2.63553    7.36278   15.91491
      H1    -2.98450    8.12726   16.42600
       H    -7.45697   -0.26399   17.44958
       O    -6.81113   -0.70370   18.00974
      H1    -5.98182   -0.55244   17.52130
       H    -6.14230    0.39367   19.20243
       O    -5.82112    1.09853   19.84390
      H1    -6.37619    1.75648   19.46497
       H    -1.25552    5.90473   14.24863
       O    -1.14643    5.33819   13.41864
      H1    -2.03978    5.29360   13.11089
       H    -1.51410    0.47333   11.67906
       O    -0.94213    0.43565   10.87441
      H1    -0.28403   -0.10572   11.30283
       H    -1.87923    5.22598   10.00288
       O    -1.29638    5.98701    9.85343
      H1    -1.31916    6.42250   10.74513
       H     1.17452    4.88644   13.63640
       O     2.11760    5.16483   13.66715
      H1     2.52683    4.50420   14.31022
       H    -1.96056   11.04019   14.35609
       O    -1.81295   11.31260   15.24270
      H1    -0.84925   11.38660   15.33041
       H     5.63118    2.87150   12.73868
       O     5.39034    2.03023   12.32573
      H1     5.94332    2.06984   11.48908
       H     2.53682    8.76982   17.51763
       O     2.43342    9.68437   17.91480
      H1     3.35300   10.03210   17.81766
       H    -5.49483    1.38702   14.78338
       O    -5.53157    1.58274   15.71856
      H1    -4.64131    1.72519   15.93344
       H    -2.86830   10.41449   16.20577
       O    -3.32635    9.73666   16.84694
      H1    -4.21313    9.90209   16.43558
       H     3.06588    1.50450   14.75160
       O     2.95295    2.44219   14.71987
      H1     2.51816    2.59121   15.58098
       H     1.01156    7.00978   11.93413
       O     0.20481    7.49257   11.47076
      H1     0.62392    7.82292   10.65655
       H     5.79676    4.78622   14.13871
       O     6.33382    4.48898   13.41251
      H1     7.20433    4.20637   13.78148

