180
frame 10 | Written by MDAnalysis XYZWriter (release 2.4.3)
       H     5.69888    5.33958   19.37293
       O     4.97453    5.35092   18.68902
      H1     4.87409    6.32474   18.62872
       H    -0.22455    3.09275   13.67365
       O    -1.04224    3.23934   14.20713
      H1    -1.24242    4.15276   13.85245
       H     4.31171   17.55337   18.60783
       O     5.09728   17.19932   18.14909
      H1     4.77886   17.34715   17.26661
       H     6.37155    2.81174   17.47885
       O     6.62904    3.69362   17.34690
      H1     5.83163    4.26065   17.76578
       H     7.42270   10.46547   12.56894
       O     7.22807    9.49202   12.60362
      H1     8.09221    9.02281   12.84807
       H     8.69542   12.31155   19.10398
       O     7.87556   11.77023   18.92862
      H1     7.45322   11.97110   19.74137
       H     3.33080    8.62985   14.49130
       O     2.37379    8.48846   14.53901
      H1     2.23466    7.51895   14.27391
       H    -3.16376    5.82340   19.07934
       O    -2.95749    5.62386   18.14944
      H1    -2.34544    4.89000   18.19629
       H    -0.24311    3.20491   17.44320
       O    -0.56675    4.06233   17.01199
      H1    -0.66333    3.72289   16.05684
       H     0.68229   15.88372   17.47037
       O     1.08898   16.01782   18.32750
      H1     0.45091   15.72796   18.97496
       H     8.61968   10.49830   16.09461
       O     8.26321   11.42015   16.15932
      H1     7.84681   11.21279   17.03262
       H    -0.97698   10.11405   11.87289
       O    -0.46354   10.52932   11.16929
      H1     0.06886    9.80599   10.71114
       H     2.63515   10.38052   13.64512
       O     2.92025   11.32383   13.53388
      H1     2.39362   11.67814   14.27778
       H     4.30578   12.97832   17.06196
       O     5.07815   12.39728   17.21882
      H1     5.36614   12.33169   16.34258
       H     4.13710   11.38416   11.54718
       O     4.83786   11.18878   10.89721
      H1     4.52599   10.25996   10.70007
       H    -1.67730    9.68134   18.63536
       O    -2.27984   10.42598   18.94399
      H1    -2.89962   10.58925   18.25225
       H     3.32932    8.23135    9.84170
       O     3.66680    8.68187   10.58724
      H1     3.65285    7.94639   11.22534
       H     6.95249   14.92482   18.81664
       O     7.65610   15.22188   19.35233
      H1     8.46052   14.83034   18.91651
       H     9.40183   10.55615   19.32528
       O    10.21805   10.16838   18.89044
      H1    10.53093   10.94032   18.43543
       H     5.98406    6.38796   11.91246
       O     5.27487    6.38772   11.24638
      H1     4.70820    5.64568   11.50560
       H    -0.21586   16.72152   15.31280
       O    -0.07611   15.93364   15.83473
      H1    -0.84286   15.35916   15.70753
       H     2.99482    4.63646   12.77486
       O     3.62679    4.29077   12.10653
      H1     4.24459    3.74779   12.55049
       H    -1.01622   12.16551   19.00228
       O    -0.16063   12.57633   18.78819
      H1    -0.30896   12.85967   17.87305
       H     1.71713   15.39658   14.78048
       O     2.47206   15.53642   14.16298
      H1     2.11715   16.24402   13.65522
       H    -0.84682    8.30678   15.68995
       O    -0.27591    9.09490   15.82101
      H1     0.13790    9.04503   14.90940
       H     2.08079   12.75121   16.62494
       O     1.70602   12.04082   16.09041
      H1     1.48980   11.36338   16.76392
       H     4.76024    6.43281   15.99194
       O     4.58551    5.55977   15.62114
      H1     4.58468    5.03120   16.40471
       H    -2.84278   14.30940   15.94259
       O    -1.94359   14.01788   16.01068
      H1    -1.86614   13.15192   15.60830
       H    -2.27436    8.59739   12.28272
       O    -1.44594    8.61312   12.79953
      H1    -0.84412    8.27092   12.17069
       H     7.03205    8.83535   16.08245
       O     6.99310    8.54461   17.06719
      H1     7.83097    8.08416   17.18908
       H     0.74732    5.17634   18.18961
       O     1.64027    5.17304   18.56050
      H1     1.56320    5.76198   19.33615
       H     2.18583    6.87933   17.66876
       O     2.52124    7.83433   17.67578
      H1     2.64647    8.03227   16.74571
       H     1.80736   17.59875   18.52203
       O     2.52534   18.26468   18.62593
      H1     2.62095   18.43013   17.66825
       H    11.18451   12.29202   16.29915
       O    10.55013   12.46656   17.05866
      H1     9.68030   12.14426   16.63805
       H     2.84447   14.62806   12.84674
       O     3.11500   14.18341   11.96366
      H1     3.52022   14.96554   11.46490
       H     4.97657   14.85254   18.68087
       O     5.38137   14.07883   19.08514
      H1     5.36350   13.42333   18.32689
       H     3.91755    2.32373   17.93903
       O     3.07398    2.64893   17.65988
      H1     3.03550    3.37749   18.32069
       H    -4.15034    7.15972   15.70569
       O    -5.03966    6.77205   15.38742
      H1    -4.74104    6.59084   14.45818
       H     4.61373   10.31535   13.93970
       O     4.84293    9.39840   14.06938
      H1     5.61301    9.24492   13.48205
       H     1.69190   13.31887   11.40683
       O     0.88675   13.02488   10.92035
      H1     0.70212   12.12092   11.20863
       H    -4.14847   13.93816   19.69048
       O    -3.84923   14.29806   18.85368
      H1    -2.91450   14.12968   18.89501
       H     9.76068    5.53183   15.50409
       O     9.07811    4.87895   15.59940
      H1     8.67010    5.27069   16.37014
       H     4.84101   16.12212   15.43132
       O     5.21802   15.22892   15.41317
      H1     6.17479   15.25060   15.59751
       H    -1.61223   14.55630   13.15666
       O    -1.43208   14.12427   12.30986
      H1    -0.43530   13.88802   12.27637
       H     0.25596    8.60405   19.00429
       O    -0.51904    8.09306   18.66451
      H1    -0.23069    8.09881   17.73492
       H    -2.55232    6.65245   16.82049
       O    -2.34196    7.35352   16.19872
      H1    -2.72071    8.20285   16.53458
       H     4.35936   12.32623   13.91334
       O     5.29881   12.48536   14.17249
      H1     5.19797   13.38764   14.41211
       H    -1.38930    6.30372   14.90753
       O    -0.85101    6.05533   14.10578
      H1    -1.33332    6.69135   13.52774
       H     2.35066   13.19291   18.88710
       O     2.64067   13.65035   18.08352
      H1     2.04600   14.40672   18.11558
       H     0.99027    5.66441   14.03477
       O     1.94322    5.75072   13.90375
      H1     2.29959    5.40689   14.76047
       H    -2.00111   11.20629   14.18211
       O    -1.79905   11.37468   15.10254
      H1    -1.29076   10.58733   15.23647
       H     2.65504    9.76746   18.25945
       O     2.79390   10.61198   18.70672
      H1     3.54030   10.91410   18.25529
       H    -3.13660   10.54098   15.91187
       O    -3.42146    9.85319   16.51383
      H1    -4.35309    9.77900   16.36625
       H     6.10809    8.11971   18.75964
       O     5.99437    7.76431   19.62661
      H1     6.95650    7.64658   19.86784
       H     3.07835    1.64710   14.73621
       O     2.99062    2.59770   14.81283
      H1     2.97618    2.63725   15.77578
       H     6.76207   12.22968   11.66229
       O     7.32978   12.21146   12.49104
      H1     6.59178   12.31260   13.18253
       H     1.19493    6.90010   11.61686
       O     0.33582    7.22670   11.32821
      H1     0.55711    7.20659   10.34679
       H     5.81259    5.39083   14.29468
       O     6.43951    5.37883   13.54976
      H1     7.29250    5.23125   13.99955
       H     8.15055   13.81242   14.72838
       O     7.86244   14.10857   15.61965
      H1     7.92888   13.32426   16.12034
       H     9.57163    8.49131   18.17839
       O     9.53420    7.70340   17.57611
      H1     9.67814    6.95133   18.19635

