180
frame 7 | Written by MDAnalysis XYZWriter (release 2.4.3)
       H   -17.80098   11.76456   -8.78236
       O   -18.45086   11.06579   -8.67447
      H1   -19.29956   11.46619   -8.73658
       H   -16.33064   13.84885    2.58087
       O   -17.00826   13.76563    1.89477
      H1   -16.53240   14.11516    1.18278
       H   -11.49823    7.23925   -4.81830
       O   -10.61684    6.99734   -4.79642
      H1   -10.43070    7.05699   -3.85429
       H   -17.12989   12.45754   -4.58648
       O   -18.01954   12.73737   -4.26132
      H1   -18.63277   11.94535   -4.19805
       H   -13.76127   12.43791   -9.93227
       O   -13.84223   13.15324   -9.25773
      H1   -14.73540   13.46699   -9.28381
       H   -14.38863   11.64673  -12.14339
       O   -14.51940   11.13558  -11.30259
      H1   -15.38547   10.82008  -11.26258
       H   -15.70478    4.36503   -2.49459
       O   -15.02291    4.56250   -3.13031
      H1   -14.92353    5.53037   -3.04723
       H   -19.07834    6.73824    1.58187
       O   -18.28488    6.51000    2.10520
      H1   -17.55792    6.64757    1.48669
       H   -17.23185    4.25241  -10.01826
       O   -17.16601    3.31148  -10.31282
      H1   -18.00190    2.92988  -10.01243
       H   -13.10960    9.10765   -0.46096
       O   -12.49898    8.51919   -0.92868
      H1   -12.18231    7.76275   -0.37416
       H   -20.01765   17.30557   -3.32795
       O   -19.29373   16.64287   -3.31599
      H1   -18.93322   16.72857   -2.42604
       H   -14.90639    8.40138   -3.19316
       O   -14.68817    7.58670   -2.69925
      H1   -14.00463    7.80348   -2.06253
       H   -13.01937   15.47161   -2.23979
       O   -13.79292   14.99427   -2.62643
      H1   -14.46090   15.72124   -2.62434
       H   -14.50435    8.60492   -9.66622
       O   -13.78802    8.89866  -10.19628
      H1   -14.04497    9.78985  -10.53545
       H   -14.12846   14.79294   -4.39604
       O   -14.13243   14.84404   -5.38083
      H1   -13.19794   14.62450   -5.63733
       H   -12.78408   11.20102   -5.43653
       O   -12.80491   10.60540   -6.17073
      H1   -13.61659   10.81860   -6.69663
       H   -10.54373    9.50284   -9.46800
       O   -10.87368    8.65782   -9.93404
      H1   -11.81086    8.91090  -10.14944
       H   -15.16484   17.74010   -3.76840
       O   -15.62534   17.26102   -3.05893
      H1   -16.48094   17.00070   -3.37003
       H   -14.57899   15.68456   -0.26893
       O   -15.37977   15.79477    0.29858
      H1   -16.10916   16.03431   -0.30207
       H   -12.24557   12.61052    1.05949
       O   -12.95439   12.41618    1.73030
      H1   -13.49616   11.71390    1.33275
       H   -15.08603   12.96253   -2.20101
       O   -14.44392   12.24388   -2.17026
      H1   -14.80337   11.59094   -1.54499
       H   -17.84497   10.50453  -13.73693
       O   -17.18234   10.01462  -13.22253
      H1   -17.22780   10.14017  -12.21087
       H   -19.83637    9.54536    1.71091
       O   -19.64931    9.93487    2.61331
      H1   -19.43122    9.22253    3.21393
       H   -16.88370    4.46997   -5.80559
       O   -16.23676    3.80001   -5.64800
      H1   -15.79259    4.13235   -4.83926
       H   -18.26438    9.28531   -5.25128
       O   -17.94662    9.85064   -4.53591
      H1   -18.16024    9.30736   -3.76990
       H   -14.93963    7.17932   -8.13104
       O   -15.69309    7.63928   -8.45206
      H1   -16.26715    6.94586   -8.85100
       H   -13.30896    6.80071   -6.67557
       O   -13.62946    6.23015   -7.42004
      H1   -12.93868    6.36344   -8.10146
       H   -15.14510   10.74094   -3.96874
       O   -15.22487    9.84149   -4.20861
      H1   -16.18797    9.71910   -4.41351
       H   -13.85840    3.24883   -8.83875
       O   -14.29768    3.60814   -8.02643
      H1   -13.87507    4.47478   -7.92450
       H   -17.52108   13.50869   -9.57156
       O   -16.76652   13.25295   -9.03043
      H1   -16.86514   13.79115   -8.16474
       H   -18.70125    7.80947   -7.21269
       O   -18.01728    7.76470   -6.54080
      H1   -17.19677    8.01787   -6.97961
       H   -11.87413   11.42739   -3.31286
       O   -12.35860   12.15673   -3.75777
      H1   -13.01603   12.42780   -3.14040
       H   -15.33637    4.78413    1.23691
       O   -15.00307    4.63326    0.34507
      H1   -14.79273    3.69039    0.24016
       H   -14.37274    9.51500    1.36629
       O   -14.37447   10.31905    0.85425
      H1   -15.29827   10.45447    0.55414
       H   -16.31024    2.41141   -6.70696
       O   -16.67387    1.64091   -7.20753
      H1   -15.86696    1.20390   -7.56184
       H   -18.61595    5.53666   -1.95280
       O   -17.68965    5.59837   -2.27337
      H1   -17.77257    5.53287   -3.23714
       H   -17.99418   12.55706    3.82064
       O   -18.84628   12.27171    4.15533
      H1   -19.18736   11.62429    3.53781
       H   -17.87111   14.52153   -1.49711
       O   -17.17848   13.88213   -1.77241
      H1   -17.62762   13.37748   -2.45105
       H   -17.16801    6.20332  -11.00078
       O   -17.45542    6.27562  -10.02810
      H1   -18.43873    6.12298   -9.96756
       H   -18.64501   14.14912  -11.12038
       O   -18.89117   13.98137  -10.17954
      H1   -18.84581   14.84855   -9.78057
       H   -18.90594   17.18353   -5.50202
       O   -18.36509   17.07715   -6.29228
      H1   -17.80129   16.30227   -6.15002
       H   -12.69905   13.85550   -7.56374
       O   -12.01278   14.28598   -6.97120
      H1   -11.52097   14.89967   -7.53017
       H   -18.05813   17.22804   -9.31497
       O   -18.87606   16.76188   -9.09268
      H1   -18.91550   16.81232   -8.12485
       H   -11.32155    9.79372   -5.78687
       O   -10.35682    9.63836   -5.89263
      H1   -10.27205    8.72601   -5.48424
       H   -12.64831    3.04956   -4.41446
       O   -12.34024    3.28518   -3.51456
      H1   -12.96387    3.94321   -3.19320
       H   -11.10476   13.60787   -0.86287
       O   -11.63473   12.81750   -0.74536
      H1   -12.50175   13.11235   -1.02710
       H   -15.56711   11.89603   -5.77670
       O   -15.65004   12.56909   -5.12435
      H1   -14.91568   13.19532   -5.27768
       H   -13.75511    6.98373    2.10117
       O   -14.43282    7.67820    1.93273
      H1   -15.07884    7.29879    1.28867
       H   -18.29383    6.31627   -5.80124
       O   -18.37358    5.40970   -5.43298
      H1   -19.20176    5.05139   -5.86846
       H   -17.37796   10.08727   -9.93435
       O   -16.88139    9.58082  -10.50520
      H1   -17.22556    8.68799  -10.33664
       H   -17.15894    2.81389   -4.23671
       O   -17.53749    2.29779   -3.50683
      H1   -16.95088    1.54172   -3.47907
       H   -18.51714    8.54701   -1.48638
       O   -17.74437    8.63375   -2.07639
      H1   -17.35683    7.75726   -2.12994
       H   -10.13656    9.52939   -2.86600
       O   -11.14228    9.58243   -2.88416
      H1   -11.36646    9.35723   -1.94378
       H   -17.42119   17.72413   -0.61337
       O   -17.92167   16.92982   -0.75079
      H1   -18.65743   16.99557   -0.12421
       H   -17.27651   10.24749   -0.67472
       O   -16.91880   10.69880    0.05551
      H1   -17.63305   11.29626    0.40797
       H   -16.19579    6.16091   -0.20213
       O   -16.41573    6.99511    0.19049
      H1   -16.46681    7.59610   -0.55153
       H   -10.58339   12.91349   -3.77599
       O    -9.82187   13.53700   -3.86252
      H1    -9.04773   13.01392   -4.24363
       H   -13.21536    8.67087   -5.78943
       O   -13.17421    7.78303   -5.34950
      H1   -13.62382    7.83841   -4.47935
       H   -15.34691   10.17788   -7.77536
       O   -15.04240   11.04228   -7.52785
      H1   -15.05057   11.64419   -8.31931
       H   -15.77067   15.05750   -6.48652
       O   -16.72684   14.80081   -6.58845
      H1   -16.87956   14.05958   -6.04534

