180
frame 6 | Written by MDAnalysis XYZWriter (release 2.4.3)
       H    -9.56410  -17.79632   14.24059
       O    -9.79245  -18.15580   15.10069
      H1    -8.97851  -18.61088   15.36867
       H    -8.21233  -10.73013    7.57648
       O    -9.13113  -10.75472    7.93941
      H1    -9.04209  -10.99266    8.86103
       H    -7.67599  -11.44594   10.87513
       O    -8.53404  -11.03298   10.60926
      H1    -9.08810  -11.12610   11.41842
       H    -3.40046  -11.14341    6.04838
       O    -3.36994  -10.84816    5.14007
      H1    -3.63038   -9.91518    5.21678
       H    -7.72605  -11.45130   15.11952
       O    -6.98759  -11.02644   15.57207
      H1    -6.32436  -10.97184   14.82901
       H    -7.16206   -8.17822   12.15653
       O    -6.73815   -7.68179   11.41341
      H1    -7.40745   -7.82229   10.65824
       H    -4.77554  -15.34932    9.58002
       O    -5.48173  -15.96809    9.73282
      H1    -6.20634  -15.72668    9.09785
       H    -5.82492  -12.51189   11.14257
       O    -6.54288  -13.15001   11.36141
      H1    -6.49537  -13.74334   10.55990
       H   -11.61933  -14.04774    7.14668
       O   -12.11539  -14.85130    7.23809
      H1   -12.97017  -14.49621    7.53860
       H   -12.64555  -10.96575   13.01479
       O   -13.20578  -10.12304   12.99813
      H1   -14.00357  -10.49247   13.41382
       H    -5.91607  -14.26544   12.85593
       O    -5.49175  -14.75939   13.54645
      H1    -5.35829  -14.21496   14.30364
       H    -7.60197   -9.49988   14.75102
       O    -8.06981   -8.94843   14.11427
      H1    -8.73295   -9.49544   13.67487
       H    -4.66882  -10.50933   13.20917
       O    -4.73420  -10.60833   14.13776
      H1    -4.30979   -9.77347   14.44670
       H    -7.66295  -17.40510   12.05765
       O    -8.54984  -17.27087   12.49608
      H1    -9.17630  -17.59707   11.89890
       H    -3.28110  -11.68118   17.86305
       O    -3.82037  -12.22849   17.25379
      H1    -4.55760  -11.65272   16.96575
       H    -2.62497  -17.42361   11.21826
       O    -2.56871  -16.83361   10.46627
      H1    -2.77931  -17.44140    9.69367
       H    -3.30579  -17.89125    7.17969
       O    -3.79717  -18.06482    8.00490
      H1    -4.29091  -17.27470    8.20984
       H    -6.60427   -7.19538    5.97643
       O    -6.97601   -8.04867    6.21642
      H1    -6.91623   -7.92912    7.16330
       H    -7.71069   -7.21573   14.95744
       O    -7.76106   -6.28647   15.22618
      H1    -8.32817   -5.88399   14.47402
       H    -5.24567   -9.42900   18.12768
       O    -5.40984   -9.03870   17.23363
      H1    -6.19553   -9.56099   16.95948
       H    -3.64534   -7.86343   10.51020
       O    -4.39078   -8.18797    9.90304
      H1    -5.16710   -7.88621   10.45185
       H    -1.58420  -12.16782   12.41631
       O    -2.00226  -11.86466   11.56185
      H1    -1.37259  -11.30119   11.03565
       H   -12.31239  -11.85867    9.89579
       O   -11.71934  -12.53855   10.23673
      H1   -12.18708  -13.38324   10.05712
       H    -0.55870   -9.70123    9.40650
       O    -0.35050   -9.87800   10.33898
      H1    -0.80454   -9.06058   10.64165
       H    -3.81252  -12.75686    7.72402
       O    -4.48120  -12.77881    7.02983
      H1    -5.14747  -13.25245    7.55462
       H    -2.50008  -14.54171    8.98640
       O    -2.78744  -13.61903    9.07566
      H1    -2.24686  -13.27418    9.85361
       H   -10.18856  -14.93005    9.71897
       O   -10.80766  -15.62210    9.44555
      H1   -11.13143  -15.43094    8.55201
       H    -0.58988  -16.53615   10.44288
       O     0.09178  -15.95050   10.16811
      H1     0.84581  -16.56324   10.15318
       H    -7.54359  -13.81428    8.27620
       O    -6.72222  -13.49148    8.62348
      H1    -6.70133  -12.60588    8.23766
       H    -6.21594   -4.86443   12.21218
       O    -6.42234   -5.10650   11.28275
      H1    -6.62656   -6.06495   11.35568
       H    -3.90500  -15.40439   16.20883
       O    -3.06563  -14.85088   16.11765
      H1    -3.33191  -13.92888   16.11783
       H   -11.06721  -17.12333   10.89038
       O   -11.59372  -17.76719   11.41174
      H1   -12.09343  -17.20579   12.00083
       H    -7.86879  -15.57008   13.89586
       O    -8.30678  -14.75493   13.85454
      H1    -8.73999  -14.78747   13.01540
       H   -11.43729  -12.86539   13.39817
       O   -11.40243  -12.03693   12.91341
      H1   -11.81401  -12.35070   12.09299
       H    -4.50038  -15.94410    6.12207
       O    -5.41750  -15.86163    6.28929
      H1    -5.79575  -16.75647    6.28975
       H    -7.68715  -18.18125    8.79884
       O    -7.64533  -19.05101    8.38440
      H1    -7.25876  -19.61818    9.11563
       H   -11.46211  -13.74269   15.35590
       O   -11.48721  -14.52036   14.69202
      H1   -10.83931  -15.17290   15.16089
       H   -10.06500  -11.33102   17.11848
       O    -9.58170  -12.14016   17.01084
      H1    -9.33093  -12.28512   17.91229
       H    -2.54516  -14.98652   14.31147
       O    -2.67878  -14.87831   13.36695
      H1    -3.48237  -14.41231   13.35524
       H   -10.95649   -8.22584   11.78460
       O   -10.83082   -8.92493   12.44152
      H1   -11.79382   -9.08975   12.55935
       H    -8.99768  -15.92063    9.06673
       O    -8.23022  -16.21780    8.60201
      H1    -8.65817  -16.30390    7.70766
       H    -9.13713  -12.69366    7.42311
       O    -9.29356  -13.61270    7.20752
      H1    -9.15120  -13.62139    6.24748
       H    -8.78712   -8.13200    9.20221
       O    -8.14751   -7.42404    9.03352
      H1    -8.85755   -6.79346    8.79357
       H    -3.51819  -14.09873    5.91371
       O    -3.28202  -14.53800    5.09914
      H1    -4.14233  -14.38582    4.61451
       H    -2.48506  -12.21419   15.40648
       O    -1.99147  -12.37464   14.58598
      H1    -1.42238  -13.06229   14.90736
       H    -9.26189  -14.83841   15.69186
       O    -9.62586  -15.54342   16.28414
      H1    -9.52126  -16.25576   15.65464
       H    -9.65959  -12.04346   13.24972
       O    -8.73452  -11.95469   13.47598
      H1    -8.62165  -12.85216   13.81437
       H    -2.64164   -9.79490   14.12486
       O    -2.72690   -9.12906   14.77772
      H1    -2.08615   -8.49775   14.39642
       H    -5.97210  -11.47167    5.92145
       O    -6.65199  -10.79715    5.85122
      H1    -6.28804   -9.97392    6.16324
       H    -1.08885  -13.17701    7.44770
       O    -0.50527  -12.44753    7.62512
      H1     0.37127  -12.87797    7.54748
       H    -9.67220  -13.29931   10.66237
       O    -9.09943  -14.08342   10.84147
      H1    -8.41492  -13.58941   11.28343
       H    -6.55403  -17.04380   14.20710
       O    -6.95277  -17.20722   15.05865
      H1    -6.30812  -17.90602   15.34430
       H    -6.24395  -18.54076   11.48747
       O    -5.94298  -17.71564   11.87718
      H1    -5.92922  -17.21142   11.00372
       H   -12.08356   -9.09145    7.29565
       O   -11.69535   -9.84388    6.81308
      H1   -10.82216   -9.89577    7.30150
       H    -8.44718  -17.67286    6.34318
       O    -9.13885  -17.01618    6.22530
      H1    -9.87600  -17.56296    6.67275
       H    -3.23856  -17.36986   13.40287
       O    -3.47239  -18.20140   12.98239
      H1    -4.17738  -17.97704   12.39963
       H    -3.66233   -6.81643   13.19544
       O    -3.84702   -6.65191   12.26916
      H1    -4.12217   -5.73894   12.41312
       H    -6.12941  -16.61373   16.54285
       O    -5.47870  -16.23200   17.22551
      H1    -5.83729  -16.54451   18.07980
       H    -1.02467  -14.67261   12.83304
       O    -0.10772  -14.47897   12.71768
      H1     0.05956  -15.10585   12.04559
       H    -4.79262  -10.07747   10.51526
       O    -4.81201  -11.02644   10.87158
      H1    -3.84396  -11.22087   10.74844

