180
frame 1 | Written by MDAnalysis XYZWriter (release 2.4.3)
       H   -16.86257    6.39886   -4.86670
       O   -16.73199    6.51110   -3.90659
      H1   -16.00626    5.92717   -3.94103
       H   -19.22634   12.49027    2.23532
       O   -19.44314   12.10752    3.09544
      H1   -19.05491   11.23279    2.96155
       H   -17.99235   11.53808   -8.44217
       O   -17.36423   12.02656   -8.97208
      H1   -17.32756   12.86125   -8.56492
       H   -13.48857    4.85799   -8.34723
       O   -14.12542    5.20641   -7.68664
      H1   -14.67947    5.79471   -8.23907
       H   -17.47977   15.71358   -3.20358
       O   -17.63556   15.06419   -3.92055
      H1   -17.31453   14.22688   -3.52459
       H   -13.38870    8.37728   -2.49037
       O   -12.40913    8.55259   -2.46907
      H1   -12.08991    8.02090   -3.21440
       H   -14.98201    1.66623    0.01696
       O   -15.21135    0.74067   -0.02911
      H1   -16.03406    0.74449    0.49287
       H   -11.55348   10.23152    0.98212
       O   -12.11662   10.85135    1.47512
      H1   -12.64575   11.21632    0.74169
       H   -14.51859    6.85134   -4.79565
       O   -14.25234    5.93612   -4.54536
      H1   -13.99723    5.64675   -5.43196
       H   -14.71729   10.67239   -8.45329
       O   -14.69275   11.46734   -7.96213
      H1   -15.55521   11.92896   -8.20736
       H   -15.83567    7.55315   -9.09149
       O   -16.06100    6.59998   -9.05124
      H1   -16.92102    6.61338   -9.49035
       H   -11.65922   13.80526   -3.09870
       O   -10.72181   13.92821   -2.78134
      H1   -10.36022   13.01490   -2.76676
       H   -10.85583    7.77420    0.85357
       O   -10.90382    8.58506    0.30142
      H1   -11.68076    8.38001   -0.18295
       H   -15.98234    7.36851    4.82709
       O   -15.52395    7.29786    5.70207
      H1   -15.30880    8.21147    6.02268
       H    -9.85054   10.94749   -1.75165
       O   -10.75819   11.08068   -2.12742
      H1   -11.09771   10.21221   -2.45229
       H   -10.71005    6.88330    3.23914
       O   -10.80210    6.63398    2.29374
      H1   -11.72617    6.23326    2.33434
       H   -11.87654    9.60114   -6.45411
       O   -11.72558    8.75942   -5.94362
      H1   -11.00288    9.00560   -5.36087
       H   -17.82388    9.33509    3.64663
       O   -18.65114    9.49245    3.16764
      H1   -18.50297    9.05904    2.33885
       H   -15.87066    9.37212   -2.65974
       O   -16.09786    8.56580   -2.18128
      H1   -16.18728    7.85379   -2.87514
       H   -18.78472    5.86410   -6.14198
       O   -19.76805    5.89652   -6.12496
      H1   -19.84980    5.70123   -5.16754
       H   -16.74693    4.62594   -6.16441
       O   -17.07005    5.45527   -6.56934
      H1   -16.55449    5.39537   -7.41969
       H   -16.66730    8.11397   -7.32767
       O   -16.74917    8.31620   -6.37779
      H1   -17.73369    8.51952   -6.29341
       H   -19.54263   11.76513   -3.58103
       O   -18.88514   11.26677   -4.11199
      H1   -19.26783   11.22507   -5.01628
       H   -19.05400   12.85155   -0.33708
       O   -18.97568   13.18918    0.55598
      H1   -18.07645   13.44504    0.65399
       H   -17.92220    2.57215    1.81691
       O   -18.14386    3.28886    1.20738
      H1   -18.16060    2.94014    0.30349
       H   -13.40813    3.18605   -4.47442
       O   -12.74299    3.02035   -3.83793
      H1   -11.94162    3.38911   -4.16200
       H   -15.03778    8.78978   -0.77590
       O   -14.27873    9.04449   -0.21497
      H1   -14.76257    9.40940    0.53763
       H   -15.09080   12.75266   -0.67319
       O   -15.77761   13.28544   -0.23644
      H1   -15.42348   14.17501   -0.19072
       H   -15.82729    2.83036   -5.58359
       O   -16.65766    2.68348   -5.99541
      H1   -17.15661    2.05989   -5.52461
       H   -19.82486   11.34054   -7.11221
       O   -19.03657   10.80998   -6.96122
      H1   -19.52960   10.01657   -6.96680
       H   -16.08224    4.20570    0.95629
       O   -15.15415    4.05719    0.89565
      H1   -14.79551    4.93158    0.81982
       H   -10.91741    6.95047   -5.96981
       O   -10.44078    6.20275   -5.57824
      H1   -10.54159    6.36025   -4.63858
       H   -11.85979    9.76470    3.09942
       O   -12.10828    9.39876    3.95977
      H1   -11.29223    9.00014    4.28296
       H   -15.71481   11.41653    0.96731
       O   -15.78864   10.56298    1.40065
      H1   -15.79528   10.79937    2.34306
       H    -8.68236    8.73094   -5.26789
       O    -9.09901    9.34987   -4.61102
      H1    -8.82400    9.08574   -3.72276
       H   -14.86208   16.80932   -0.79600
       O   -14.89605   15.82571   -0.61599
      H1   -14.61558   15.52989   -1.50484
       H   -16.19047    3.97497    3.86796
       O   -15.27651    3.99370    3.55607
      H1   -15.33616    4.11934    2.56135
       H   -18.03469    8.85143   -0.00871
       O   -18.47495    9.62800    0.35571
      H1   -17.69227   10.02741    0.79150
       H   -15.98151    1.50746   -3.09682
       O   -16.21070    2.41820   -2.99844
      H1   -17.13464    2.53605   -3.04997
       H   -15.77785    6.06816    2.88082
       O   -16.47790    6.66063    2.99351
      H1   -16.66902    6.89810    2.11892
       H   -16.92918    6.40615   -0.54621
       O   -17.11595    7.07924    0.13021
      H1   -17.97779    6.71529    0.42318
       H    -8.21444    7.87656   -1.79964
       O    -9.13422    8.09235   -2.07803
      H1    -9.53684    8.25628   -1.22196
       H   -13.32804    6.20148   -0.05141
       O   -13.57025    6.43302    0.87795
      H1   -13.82659    7.38194    0.73820
       H   -19.42800    2.18127   -4.04393
       O   -19.87155    1.33041   -4.14970
      H1   -19.16711    0.70021   -4.09000
       H   -14.50312   11.12164   -5.87528
       O   -14.57164   11.23480   -4.92985
      H1   -14.55326   10.24956   -4.73365
       H   -12.82085   13.78222   -5.59486
       O   -12.65328   13.59660   -6.49336
      H1   -11.74543   13.87740   -6.52408
       H   -18.09346    8.04030   -3.83231
       O   -18.94567    8.45664   -4.23914
      H1   -18.82286    9.42016   -3.87636
       H   -14.06417   13.32659    2.05372
       O   -14.09715   12.64725    2.73611
      H1   -13.37249   12.08814    2.38151
       H   -13.64282    8.52983   -5.57856
       O   -14.40266    8.51054   -5.01895
      H1   -15.10212    8.65160   -5.72154
       H   -11.69359   11.89003   -7.05734
       O   -11.71620   11.01043   -7.50165
      H1   -11.99134   11.31810   -8.39717
       H   -12.62697    3.51436   -1.16606
       O   -12.50493    4.38015   -1.49894
      H1   -12.98004    4.39332   -2.30812
       H   -15.60292    4.42160   -0.88643
       O   -16.10854    4.87210   -1.59169
      H1   -15.92904    4.12346   -2.16007
       H   -13.45352   15.29530    0.64361
       O   -13.13197   14.57114    1.18107
      H1   -12.22330   14.54336    0.84429
       H   -17.45531   11.91860   -3.69442
       O   -16.63242   12.40576   -3.35232
      H1   -15.99720   11.93457   -3.93216
       H   -15.49817    9.46315   -9.86682
       O   -14.86883    9.12925   -9.17806
      H1   -14.01496    8.90759   -9.66166
       H   -11.31904    5.49093   -2.20377
       O   -10.66329    5.92217   -2.84114
      H1   -10.37252    6.70228   -2.28346
       H   -13.52086   10.59558   -0.84921
       O   -13.45438   11.55432   -0.88008
      H1   -12.55852   11.67384   -1.29821
       H   -18.89559    3.93609   -2.53241
       O   -18.45217    3.92874   -3.34083
      H1   -18.32884    4.93319   -3.40173
       H   -13.92942   14.36351   -3.64681
       O   -13.16890   13.77479   -3.93722
      H1   -13.63902   12.97955   -4.21428
       H   -15.99226   11.54778    4.18238
       O   -16.28343   10.58377    4.14402
      H1   -15.43328   10.17058    4.42948

