180
frame 11 | Written by MDAnalysis XYZWriter (release 2.4.3)
       H    13.27564   18.99652   -2.89136
       O    13.07313   19.79372   -3.42311
      H1    13.23179   19.27980   -4.25860
       H    16.36132   18.88936   -2.55834
       O    16.10406   19.54665   -1.86348
      H1    15.14843   19.52345   -1.73580
       H    16.13562   10.26569   -7.59078
       O    15.70126   11.08988   -7.33961
      H1    15.27032   11.24705   -8.17593
       H     9.11405   14.07344   -6.70271
       O     9.85930   14.59223   -6.39560
      H1     9.51058   14.99327   -5.57057
       H    12.12032   12.92879   -0.96969
       O    11.55632   13.47392   -0.41903
      H1    11.56522   14.30561   -0.88257
       H    13.89009   17.92397   -5.83709
       O    14.63568   18.35772   -5.39123
      H1    14.91395   17.61028   -4.75571
       H    16.35381   12.25557    0.97672
       O    17.08975   11.76909    0.65329
      H1    17.77047   12.00769    1.27547
       H    16.16107    9.90119   -0.80241
       O    16.49480    9.22584   -1.42996
      H1    17.19769    9.76019   -1.84469
       H    16.45843   15.07429    1.49686
       O    16.30351   14.83365    2.41463
      H1    17.16542   14.74242    2.82226
       H    13.23347    5.80763   -5.98680
       O    13.01565    5.48104   -5.11460
      H1    13.66564    5.97919   -4.61742
       H     9.59858   11.72851    0.30074
       O     8.66976   11.85767    0.12998
      H1     8.48248   12.76039    0.29658
       H    17.95997    8.03912   -0.81073
       O    18.41324    7.37437   -0.26229
      H1    18.53274    7.88871    0.55584
       H    18.53610    9.80258    2.46552
       O    18.05696    8.99452    2.17131
      H1    18.44505    8.31931    2.71559
       H    16.18312    7.19062   -6.40978
       O    15.98449    8.16420   -6.43160
      H1    15.85256    8.26895   -5.49844
       H    14.17053   14.51835   -2.70120
       O    13.52743   13.88225   -2.30386
      H1    12.71065   13.90647   -2.80138
       H    11.31632   11.28576   -2.64864
       O    12.23597   11.01149   -2.88353
      H1    12.73297   10.99419   -2.03769
       H    12.70872   12.47116   -8.68972
       O    12.25137   12.88236   -7.94378
      H1    11.62422   13.45854   -8.37435
       H    13.93592   12.28187    0.43380
       O    14.50932   13.08865    0.71106
      H1    13.88205   13.79762    0.82593
       H    11.81840    8.85854   -3.56955
       O    12.10827    8.02132   -3.24453
      H1    12.32140    8.21778   -2.30300
       H     8.59538   13.39090   -2.36861
       O     8.00567   14.17937   -2.28586
      H1     8.41041   14.48356   -1.49876
       H    13.30235    7.09108    2.47281
       O    14.04124    7.46205    2.99916
      H1    14.46493    7.99726    2.33885
       H    14.38832   12.54535   -2.81919
       O    15.22717   12.02557   -2.88689
      H1    15.03085   11.22019   -3.39853
       H    18.89451   15.41194   -6.08226
       O    18.26672   15.89383   -5.50596
      H1    18.39086   16.82070   -5.86126
       H    14.41562    8.70050   -7.24134
       O    13.60866    8.83143   -7.79492
      H1    13.28484    7.98003   -8.05977
       H    11.26328   13.24183   -5.27514
       O    11.98573   13.39684   -4.59549
      H1    11.99000   12.52869   -4.09360
       H    16.27445    9.55145    2.41459
       O    15.48304    9.89463    1.97978
      H1    15.93183   10.59099    1.38983
       H    17.32898   13.21251   -4.50142
       O    17.21791   13.63840   -3.63041
      H1    16.44679   13.08399   -3.36497
       H    11.61504   12.58960    2.23293
       O    11.54799   11.62497    1.98000
      H1    12.29133   11.32981    2.51847
       H    17.41192    3.85541   -2.37286
       O    18.27083    4.30854   -2.21838
      H1    17.99690    5.26405   -2.24650
       H    15.90256   14.40016   -0.77709
       O    16.64746   14.95626   -0.40067
      H1    17.41681   14.41941   -0.59174
       H    17.03265   12.34294   -7.11095
       O    17.79492   12.86194   -6.88167
      H1    17.35722   13.75207   -6.96315
       H     8.96315   11.49123   -1.89081
       O     9.41027   11.65042   -2.72766
      H1     9.05705   11.04360   -3.45152
       H     8.70412   10.50361   -5.80645
       O     8.51116    9.92415   -5.01659
      H1     8.96146    9.15450   -5.30301
       H    18.07774   16.51685   -3.43525
       O    17.65450   16.86841   -2.61544
      H1    17.93893   16.25195   -1.93252
       H    16.01312    7.60022   -0.74547
       O    15.30230    6.90535   -0.69415
      H1    15.79606    6.31588   -0.08512
       H    14.17833   17.00974   -2.01545
       O    13.39182   17.54082   -1.84017
      H1    13.61797   18.02249   -1.03258
       H    18.38721   11.26735   -6.13237
       O    18.82712   10.52340   -5.70439
      H1    18.80786    9.95688   -6.49429
       H    10.33169    5.88627   -1.90479
       O     9.89946    6.71409   -2.05941
      H1    10.70825    7.17615   -2.38554
       H    12.57523   10.69144    0.49411
       O    13.17603   10.90558   -0.26209
      H1    13.46513   10.01648   -0.47072
       H    11.28938   14.88412    2.41035
       O    12.01865   14.24258    2.25353
      H1    11.86411   14.19266    1.25939
       H    13.48843   10.15784    4.39531
       O    14.24450   10.73515    4.20032
      H1    14.68545   10.38023    3.40227
       H    16.82696   15.47330   -6.47260
       O    16.23390   15.00621   -7.16689
      H1    15.52288   14.66970   -6.65202
       H    18.41281   12.08752   -1.08863
       O    18.92819   12.20015   -1.86257
      H1    18.36607   12.68397   -2.52998
       H    12.53540    7.43609    0.17461
       O    12.78895    8.06823   -0.49308
      H1    13.60217    7.69489   -0.86147
       H    10.60409   12.07883   -7.68756
       O     9.68524   11.74217   -7.51740
      H1     9.37852   11.38337   -8.40390
       H    13.04642   14.68778   -5.22290
       O    13.81096   15.19584   -5.47418
      H1    13.49538   15.65532   -6.31166
       H    18.76880   10.67309   -2.51851
       O    18.61493    9.88700   -3.05109
      H1    18.55701   10.26818   -3.92462
       H    16.22124   15.75410   -3.27796
       O    15.22386   15.91740   -3.24648
      H1    14.82768   15.60667   -4.14917
       H    12.33573   16.60807   -7.88104
       O    13.05012   16.94197   -7.38681
      H1    13.74153   16.99669   -8.03643
       H    14.73433   12.05577  -10.33673
       O    14.20918   11.64531   -9.61493
      H1    14.38852   10.71438   -9.93704
       H    17.39742    8.33249   -7.74824
       O    17.79743    8.86309   -8.39172
      H1    18.63709    8.40021   -8.45797
       H    12.69126    9.57270   -6.55869
       O    12.23820    9.81711   -5.73188
      H1    12.16399   10.79162   -5.73790
       H    13.76412   14.07369    4.28948
       O    14.53299   14.60699    4.45864
      H1    15.18242   14.35204    3.81708
       H    14.53652    9.60619   -5.03384
       O    15.29107   10.11032   -4.77324
      H1    15.18833   10.75408   -5.49957
       H    19.50066    6.55883   -3.98975
       O    18.67126    7.02470   -4.16489
      H1    18.68457    7.88206   -3.69280
       H    12.01197   16.55235   -1.52509
       O    11.27199   15.94077   -1.68450
      H1    10.59174   16.11456   -1.05132
       H     8.43922   15.45946   -3.63312
       O     9.13605   15.95484   -4.09896
      H1     9.87054   15.87234   -3.48000
       H    14.11149    7.86094   -3.76879
       O    14.87139    7.28305   -4.02696
      H1    15.52968    7.40977   -3.34003
       H    17.13260   17.37537    0.66802
       O    17.78904   17.71689    1.25006
      H1    17.73653   18.63134    0.96781
       H    18.98966   11.00025    3.78263
       O    18.92783   11.52626    2.99249
      H1    19.88134   11.44359    2.75055

