180
frame 5 | Written by MDAnalysis XYZWriter (release 2.4.3)
       H    12.68758   -8.80127   -6.96459
       O    13.62452   -8.74311   -7.27578
      H1    13.89221   -7.83198   -6.91210
       H    16.77064   -5.99633   -4.15411
       O    17.26645   -5.18104   -3.87846
      H1    17.71714   -5.60145   -3.16243
       H    12.40049  -10.57870   -8.76926
       O    12.75464  -11.22350   -8.10254
      H1    13.45677  -10.64039   -7.76346
       H    12.99767   -4.99962   -4.09463
       O    13.33141   -5.53535   -4.82867
      H1    12.51107   -6.04281   -5.02811
       H    17.05497  -11.30199   -0.96007
       O    17.58276  -11.40473   -1.77498
      H1    17.26370  -10.65096   -2.31299
       H     7.51593   -5.82362   -4.21293
       O     8.16026   -6.20468   -4.82365
      H1     7.72329   -7.01592   -5.17920
       H    13.14006  -12.00045   -0.47005
       O    12.69849  -11.42913   -1.09589
      H1    11.76388  -11.51431   -0.82781
       H    12.99806   -2.34541  -10.97868
       O    13.40489   -1.48557  -10.80827
      H1    14.25069   -1.74147  -10.37425
       H    12.74060   -5.83836   -1.89016
       O    12.64822   -4.83471   -1.96577
      H1    13.58541   -4.65503   -2.06396
       H    14.83073   -8.08954   -4.08677
       O    14.64155   -8.64987   -3.29744
      H1    13.98584   -8.07036   -2.88925
       H    13.56084   -6.09416  -11.12194
       O    13.20818   -5.29550  -11.56602
      H1    12.25546   -5.46293  -11.30011
       H    15.36050    0.95885   -2.95613
       O    15.78295    0.10390   -2.74729
      H1    15.23492   -0.45553   -3.39433
       H    15.74707   -6.57799   -6.29313
       O    15.52363   -6.74462   -5.34302
      H1    14.74260   -6.20421   -5.24315
       H    11.94866   -7.45728   -0.88760
       O    12.68667   -7.42322   -1.53996
      H1    13.38140   -7.42618   -0.89435
       H    12.08927   -4.29322   -0.40291
       O    11.70797   -4.37108    0.53121
      H1    11.14845   -3.53475    0.55691
       H    10.34660   -9.79681  -10.14223
       O    11.18631  -10.26797  -10.22587
      H1    10.90676  -11.18902  -10.05301
       H    18.95124   -3.64368   -6.06252
       O    18.00866   -3.90485   -6.19418
      H1    17.70957   -4.33430   -5.38723
       H    18.77082   -3.64965   -1.51472
       O    19.14368   -2.75306   -1.25435
      H1    18.64504   -2.17395   -1.93738
       H     8.37771   -5.30891   -6.47104
       O     8.52514   -4.56707   -7.03173
      H1     9.39232   -4.22143   -6.75780
       H    17.88144   -7.53341   -0.42808
       O    17.68467   -8.34686   -0.89871
      H1    18.52291   -8.52361   -1.33102
       H    13.24503   -1.61895   -1.20454
       O    14.12786   -1.74728   -0.85003
      H1    14.54041   -0.89802   -1.15895
       H    19.52949   -9.62354   -7.31904
       O    18.94189   -8.88824   -7.13701
      H1    18.15745   -9.19705   -6.64783
       H    16.49302  -13.28331   -8.50574
       O    16.75421  -12.37018   -8.24509
      H1    17.43640  -12.27015   -8.99524
       H    16.02885  -13.61036   -2.85156
       O    16.08447  -12.86540   -3.47119
      H1    16.70069  -12.29004   -3.00978
       H    17.47073    0.11161   -6.26199
       O    17.86620   -0.73310   -6.03564
      H1    17.10582   -1.32324   -6.08460
       H    17.78208   -5.24773    1.09118
       O    18.26056   -5.99735    0.75066
      H1    19.00680   -5.99485    1.33823
       H    15.72914   -8.47373   -0.82860
       O    14.98021   -8.21394   -0.25654
      H1    15.07875   -8.88512    0.54714
       H    16.07030   -1.38172   -9.37052
       O    15.97266   -2.00800  -10.10891
      H1    16.26714   -2.73856   -9.59799
       H    10.34515  -12.51429   -7.42508
       O     9.83395  -11.78088   -7.07583
      H1    10.52854  -11.12243   -6.98324
       H    13.25718  -12.46313   -4.20538
       O    12.69493  -12.83510   -3.46350
      H1    12.77363  -12.12980   -2.80006
       H    15.19355   -6.83986   -8.87265
       O    15.54105   -6.21103   -8.18030
      H1    16.15650   -5.55120   -8.64418
       H    17.87117   -4.21474   -8.27629
       O    17.29548   -4.22954   -9.08846
      H1    17.90447   -4.49272   -9.83862
       H    15.76214  -10.90780   -7.09878
       O    15.51443  -10.56345   -6.24199
      H1    14.88943   -9.80796   -6.44715
       H    18.72406   -8.71916   -9.33780
       O    18.33694   -9.13568  -10.13283
      H1    18.61259   -8.64080  -10.93421
       H     9.47635   -3.26604   -2.52520
       O     8.95010   -3.74486   -3.16370
      H1     9.41654   -3.67277   -4.01544
       H    14.57208   -2.50935   -7.14930
       O    15.37711   -2.12360   -6.98124
      H1    16.06510   -2.80923   -6.76298
       H    10.97560   -5.96809   -8.83485
       O    10.35543   -6.33018   -8.16931
      H1     9.65677   -5.68090   -8.10056
       H    10.48261   -3.76705  -10.80965
       O    10.72170   -4.72095  -10.68351
      H1    10.16832   -4.94120  -11.49848
       H     9.93709   -6.67280   -4.45002
       O    10.73253   -7.19004   -4.21898
      H1    10.81784   -7.10870   -3.29730
       H     9.33508   -7.92534   -9.32094
       O     9.08609   -8.65142   -9.87526
      H1     8.65187   -8.23823  -10.68395
       H    11.17648   -1.19663   -2.36771
       O    11.34674   -1.98184   -1.83980
      H1    11.77072   -2.67010   -2.32357
       H    12.71338   -2.13383   -4.55011
       O    12.02936   -2.84024   -4.47443
      H1    11.79353   -3.00900   -5.38319
       H    15.77105  -11.14665   -9.21117
       O    15.52278  -10.30273   -9.51171
      H1    16.27574   -9.83805   -9.83708
       H    13.79315   -4.75238   -6.67514
       O    13.62249   -4.39080   -7.58430
      H1    14.27397   -4.99061   -8.04047
       H    11.63214   -3.54485   -7.64908
       O    10.88403   -3.09277   -7.22115
      H1    10.60830   -2.40644   -7.91749
       H    10.68744   -7.87840   -7.12082
       O    10.94738   -8.70757   -6.72640
      H1    10.84324   -8.53919   -5.78969
       H    19.02071   -5.22358   -6.81566
       O    19.41429   -5.86423   -7.46756
      H1    18.94397   -6.71873   -7.22478
       H    16.06903   -4.30683   -2.49278
       O    15.30024   -4.17839   -1.96853
      H1    15.29282   -3.27504   -1.64199
       H    19.79340   -5.14496   -2.08096
       O    18.88897   -5.53244   -1.89297
      H1    18.79343   -5.41523   -0.95942
       H    14.80898   -1.30947   -5.58146
       O    14.32749   -0.68932   -4.94687
      H1    13.80075   -0.25510   -5.58705
       H    15.40624   -6.42905    0.25329
       O    15.47301   -5.49994    0.51144
      H1    15.61914   -5.07980   -0.32596
       H    16.62868  -10.41317   -4.80140
       O    17.00852   -9.89464   -4.04090
      H1    16.17707   -9.55882   -3.66305
       H    17.42912   -0.64230   -2.84364
       O    18.06890   -1.29763   -3.13855
      H1    18.26813   -0.93441   -4.03111
       H    10.38688   -6.00602   -0.10927
       O    10.53769   -6.95721   -0.06731
      H1     9.74934   -7.44020   -0.28631
       H    11.45966    1.33580   -3.17485
       O    11.77922    0.42292   -3.30616
      H1    11.58875    0.39468   -4.29233
       H    20.06833   -9.41215   -5.30731
       O    19.86461   -9.64049   -4.36608
      H1    18.87674   -9.63784   -4.43111
       H    19.44658   -1.49707   -8.70161
       O    19.72712   -1.48823   -7.75836
      H1    18.95107   -1.32164   -7.27626
       H    13.97402  -10.24708  -10.32064
       O    13.56853  -10.18989  -11.19864
      H1    12.62170  -10.27618  -10.88406
       H    15.06478   -7.70528  -11.38129
       O    14.70910   -7.41916  -10.50548
      H1    14.04056   -8.11717  -10.40158
       H    14.25420   -4.89023    2.37362
       O    13.73346   -4.04004    2.46295
      H1    13.22162   -4.08340    1.62318

