180
frame 10 | Written by MDAnalysis XYZWriter (release 2.4.3)
       H    -0.22455    3.09275   13.67365
       O    -1.04224    3.23934   14.20713
      H1    -1.24242    4.15276   13.85245
       H    -1.94425    4.15671    6.35432
       O    -2.77611    3.66161    6.38544
      H1    -2.56647    3.02424    5.60394
       H    -4.65452    5.23751   12.86661
       O    -4.10942    6.02076   13.07904
      H1    -4.46193    6.69998   12.50873
       H     3.33080    8.62985   14.49130
       O     2.37379    8.48846   14.53901
      H1     2.23466    7.51895   14.27391
       H     2.20061    0.97442    8.09193
       O     2.16958    0.71921    9.03336
      H1     2.44672    1.58434    9.41332
       H    -0.24311    3.20491   17.44320
       O    -0.56675    4.06233   17.01199
      H1    -0.66333    3.72289   16.05684
       H    -0.97698   10.11405   11.87289
       O    -0.46354   10.52932   11.16929
      H1     0.06886    9.80599   10.71114
       H    -4.02865   12.10535   12.33114
       O    -3.22167   12.02860   12.92057
      H1    -2.64658   12.69947   12.48545
       H     2.63515   10.38052   13.64512
       O     2.92025   11.32383   13.53388
      H1     2.39362   11.67814   14.27778
       H     6.22723    5.70601    9.61881
       O     6.66546    5.22039    8.89413
      H1     5.93252    4.95615    8.38392
       H     4.13710   11.38416   11.54718
       O     4.83786   11.18878   10.89721
      H1     4.52599   10.25996   10.70007
       H     3.32932    8.23135    9.84170
       O     3.66680    8.68187   10.58724
      H1     3.65285    7.94639   11.22534
       H    -0.17246    3.43976    9.55800
       O     0.23944    4.14702   10.07416
      H1    -0.46098    4.79756   10.28703
       H    -2.73012    8.53881    6.15072
       O    -2.43318    8.89387    5.29121
      H1    -2.33704    8.06325    4.80649
       H    -1.23049   10.79948    8.67075
       O    -2.08867   11.13542    9.06258
      H1    -1.80265   11.11828    9.97454
       H     2.00243    3.71501    9.69522
       O     2.90160    3.26127    9.78466
      H1     3.15485    3.65693   10.68618
       H    -5.69797    5.80543   10.45192
       O    -5.10231    5.54371    9.73628
      H1    -4.97781    4.60183    9.92197
       H     4.92935    2.68379    7.45800
       O     4.53255    3.58690    7.56491
      H1     3.83294    3.47884    8.27096
       H     5.98406    6.38796   11.91246
       O     5.27487    6.38772   11.24638
      H1     4.70820    5.64568   11.50560
       H     1.38555    0.68109   12.17935
       O     1.66245   -0.12474   11.72382
      H1     1.66858    0.10485   10.77176
       H    -2.31445    2.15486   13.43414
       O    -2.59044    1.57998   12.67929
      H1    -3.48721    1.35487   13.01297
       H    -3.33253    2.62215    9.23963
       O    -3.70818    2.80615   10.14536
      H1    -2.94637    2.59482   10.71472
       H     2.99482    4.63646   12.77486
       O     3.62679    4.29077   12.10653
      H1     4.24459    3.74779   12.55049
       H    -0.84682    8.30678   15.68995
       O    -0.27591    9.09490   15.82101
      H1     0.13790    9.04503   14.90940
       H     2.08079   12.75121   16.62494
       O     1.70602   12.04082   16.09041
      H1     1.48980   11.36338   16.76392
       H     4.76024    6.43281   15.99194
       O     4.58551    5.55977   15.62114
      H1     4.58468    5.03120   16.40471
       H     0.48402    9.35861    8.15521
       O     0.36369   10.33482    8.28383
      H1     0.95409   10.77541    7.67980
       H    -2.27436    8.59739   12.28272
       O    -1.44594    8.61312   12.79953
      H1    -0.84412    8.27092   12.17069
       H     5.03282    9.34665    7.59128
       O     4.38326    9.94347    7.34556
      H1     4.65568   10.07812    6.42902
       H     2.18583    6.87933   17.66876
       O     2.52124    7.83433   17.67578
      H1     2.64647    8.03227   16.74571
       H     2.57131   11.79397    8.57557
       O     2.59133   12.70045    8.22541
      H1     2.20022   13.14392    9.03507
       H    -3.99197    9.70278   11.18059
       O    -3.81139    8.78641   10.88935
      H1    -3.79033    8.78700    9.96054
       H    -1.29856    1.23612    9.42397
       O    -1.29468    2.01075    8.90261
      H1    -1.17767    1.70521    8.01333
       H    -1.91639   12.93586    9.37742
       O    -2.49470   13.70338    9.62667
      H1    -1.99250   14.04600   10.46456
       H     0.26462    3.54409    4.50690
       O    -0.30126    4.24053    4.82092
      H1     0.31191    4.94858    5.10574
       H    -4.15034    7.15972   15.70569
       O    -5.03966    6.77205   15.38742
      H1    -4.74104    6.59084   14.45818
       H     4.61373   10.31535   13.93970
       O     4.84293    9.39840   14.06938
      H1     5.61301    9.24492   13.48205
       H     1.69190   13.31887   11.40683
       O     0.88675   13.02488   10.92035
      H1     0.70212   12.12092   11.20863
       H     1.85672    2.66821   13.50323
       O     1.18555    2.54189   12.76172
      H1     1.41295    3.30784   12.24217
       H    -1.61223   14.55630   13.15666
       O    -1.43208   14.12427   12.30986
      H1    -0.43530   13.88802   12.27637
       H     0.05326    7.29366    8.03128
       O     0.70080    7.65948    8.66252
      H1     1.51446    7.25932    8.32827
       H     0.25596    8.60405   19.00429
       O    -0.51904    8.09306   18.66451
      H1    -0.23069    8.09881   17.73492
       H     3.18740    8.12458    7.50571
       O     3.40923    7.21971    7.78500
      H1     3.97030    6.93274    7.00130
       H    -2.55232    6.65245   16.82049
       O    -2.34196    7.35352   16.19872
      H1    -2.72071    8.20285   16.53458
       H    -3.54597   10.04124    8.26194
       O    -3.83616    9.16274    7.92844
      H1    -4.81204    9.38300    7.69260
       H     4.35936   12.32623   13.91334
       O     5.29881   12.48536   14.17249
      H1     5.19797   13.38764   14.41211
       H    -1.38930    6.30372   14.90753
       O    -0.85101    6.05533   14.10578
      H1    -1.33332    6.69135   13.52774
       H    -1.52523    0.55204   11.48673
       O    -1.04478    0.00995   10.79558
      H1    -0.15670   -0.19538   11.12830
       H    -3.12901    5.69348    9.70658
       O    -2.18429    5.86664    9.80339
      H1    -2.23299    6.18046   10.69688
       H     0.99027    5.66441   14.03477
       O     1.94322    5.75072   13.90375
      H1     2.29959    5.40689   14.76047
       H    -2.00111   11.20629   14.18211
       O    -1.79905   11.37468   15.10254
      H1    -1.29076   10.58733   15.23647
       H     6.71442    8.59882    8.68764
       O     6.49310    8.03298    7.93391
      H1     6.64632    7.19868    8.39135
       H     6.28589    3.85419   12.71503
       O     5.96866    3.00879   12.39353
      H1     6.43276    2.98564   11.52454
       H     2.18179    6.53496    5.73434
       O     1.43867    6.21266    5.20244
      H1     1.76468    6.43017    4.30408
       H    -3.13660   10.54098   15.91187
       O    -3.42146    9.85319   16.51383
      H1    -4.35309    9.77900   16.36625
       H     6.79747   10.56284    9.43533
       O     7.30240    9.84384    9.91577
      H1     6.73074    9.83681   10.69786
       H     3.07835    1.64710   14.73621
       O     2.99062    2.59770   14.81283
      H1     2.97618    2.63725   15.77578
       H     1.45535   10.23021    5.33652
       O     1.92096   11.01187    5.64072
      H1     1.21687   11.73186    5.57253
       H     1.19493    6.90010   11.61686
       O     0.33582    7.22670   11.32821
      H1     0.55711    7.20659   10.34679
       H     5.81259    5.39083   14.29468
       O     6.43951    5.37883   13.54976
      H1     7.29250    5.23125   13.99955

