180
frame 11 | Written by MDAnalysis XYZWriter (release 2.4.3)
       H    17.09651   -1.41120   11.03572
       O    17.14349   -0.94104   10.24071
      H1    17.13711   -1.67854    9.56191
       H    11.82388   -5.49048    2.44915
       O    11.85479   -5.15048    3.33081
      H1    10.90976   -5.12123    3.55303
       H    18.72299    1.92060    9.60621
       O    17.79401    1.84494    9.81855
      H1    17.68431    0.92082   10.08304
       H    14.32912    1.29960   11.49051
       O    13.33264    1.09109   11.36909
      H1    13.37377    0.16052   11.68366
       H    15.76220   -0.22016    9.16103
       O    15.13997    0.51852    8.90710
      H1    14.45922    0.60632    9.62316
       H    15.35563    1.12555    0.90079
       O    15.52680    2.01888    0.52027
      H1    16.46399    1.86539    0.28778
       H    14.74417   -0.43305    5.77405
       O    15.39549   -1.11968    5.87231
      H1    15.04779   -1.85220    5.35531
       H    13.77943   -5.48015   -0.87916
       O    13.32724   -4.69211   -1.22633
      H1    13.97364   -3.94597   -1.09401
       H    12.62232    3.74242    9.11448
       O    13.12358    3.22609    8.49308
      H1    14.01073    3.45760    8.72666
       H    11.83793   -4.90085   -0.31407
       O    11.20911   -5.12194    0.38084
      H1    11.21148   -4.21701    0.75111
       H    14.56186   -3.74935    2.62892
       O    14.28905   -2.86468    2.67108
      H1    13.77120   -2.64498    1.88189
       H    13.03327   -0.54207    8.10721
       O    12.41874    0.08397    8.54320
      H1    13.04752    0.91708    8.47384
       H    19.33307   -0.66984   -0.73850
       O    19.33324   -1.27966    0.01910
      H1    19.70248   -0.73288    0.67679
       H    18.06795    2.39945    3.96988
       O    18.89565    2.51882    4.47169
      H1    18.86675    1.92187    5.21436
       H    11.63490   -2.90642    4.42251
       O    12.15899   -2.16805    4.13187
      H1    12.91060   -2.55889    3.64095
       H    17.31289   -1.45534    2.77193
       O    18.01204   -2.15703    2.73088
      H1    17.72021   -2.67487    1.99121
       H    12.88221   -1.89616   -0.51506
       O    13.81684   -1.79939   -0.34491
      H1    14.11407   -1.29767   -1.09375
       H     7.83401   -2.36445    2.98782
       O     8.64796   -2.24974    3.42422
      H1     9.32847   -2.38334    2.70159
       H    12.62770   -2.33957   12.36987
       O    13.34210   -1.82406   11.93987
      H1    13.92833   -1.70099   12.73634
       H    17.50655   -3.68182   -0.50284
       O    18.28741   -3.79521    0.14620
      H1    18.72321   -2.88970    0.08297
       H    11.16464   -3.87260    8.71193
       O    10.87806   -4.36039    9.49725
      H1    10.03419   -4.73508    9.11311
       H    19.45228   -3.01157    6.28913
       O    19.35081   -3.85190    5.91278
      H1    18.54135   -3.64998    5.37646
       H    18.54937   -5.99612    4.81980
       O    18.19393   -5.97569    3.88830
      H1    17.30652   -5.62764    3.97410
       H    15.70734    2.59197    2.37941
       O    16.01480    3.10036    3.16677
      H1    15.27642    3.73350    3.31509
       H    17.24013   -0.33018   13.12171
       O    17.58991    0.49669   13.46352
      H1    18.48652    0.52752   13.23653
       H    16.89117   -7.55162    6.45191
       O    17.57694   -7.79263    7.14483
      H1    18.20521   -7.05345    6.98368
       H    11.91668    3.33954    0.26537
       O    11.96626    3.69298    1.19105
      H1    12.87498    3.49980    1.59331
       H    17.49396   -5.06232   11.62849
       O    17.13076   -4.83856   10.74726
      H1    16.90380   -5.69752   10.40630
       H    18.09639    4.83119    6.27443
       O    18.72805    5.07620    5.60463
      H1    19.01137    4.21236    5.21403
       H    16.27866    4.70874    2.10941
       O    16.32998    5.68026    1.88223
      H1    15.57240    6.08281    2.33101
       H    15.26305   -1.10092    1.38827
       O    15.60729   -0.31824    1.96497
      H1    14.82431   -0.12214    2.44064
       H    10.73481   -1.07286    1.83278
       O    10.88829   -2.05473    1.84130
      H1    11.36956   -2.03447    2.70074
       H    11.87467   -7.55582    4.59436
       O    11.78196   -8.43700    4.18371
      H1    12.16806   -8.30445    3.30069
       H    15.96677    3.00669   11.23651
       O    15.79828    2.52921   12.04478
      H1    16.61499    2.05055   12.34819
       H    12.35859    4.24536    7.01311
       O    12.19618    4.88527    6.26219
      H1    12.69493    5.60803    6.71084
       H    12.00314    2.20277   10.69184
       O    11.19016    2.73345   10.70654
      H1    10.59967    2.06115   11.16613
       H     9.60310    1.01417    0.81312
       O     9.87998    0.59390    1.66003
      H1     9.04108    0.59676    2.18817
       H    11.67418   -2.89609    7.08270
       O    10.76041   -2.92310    6.76894
      H1    10.56363   -2.00544    6.54487
       H    12.60444   -5.98377    9.01573
       O    13.06782   -6.45406    9.67660
      H1    13.26966   -5.67367   10.23036
       H    16.31165   -3.20217   -2.55100
       O    15.96017   -3.25415   -1.63103
      H1    15.64011   -2.36852   -1.47058
       H     8.18917   -4.12404    8.02910
       O     8.52974   -5.07255    8.08390
      H1     9.17944   -4.97607    7.31688
       H    16.82744    0.64530    7.23266
       O    17.44080    1.41925    7.22297
      H1    17.48323    1.57963    8.16136
       H    16.35776   -7.35605    1.17739
       O    16.99868   -7.85402    1.72007
      H1    17.52572   -7.20450    2.21206
       H    15.67919   -8.17484    9.54101
       O    16.52677   -7.72500    9.40031
      H1    16.72048   -7.92239    8.46284
       H    11.14155   -6.18629    6.50340
       O    11.73346   -6.98049    6.65687
      H1    10.95421   -7.47854    6.92478
       H    17.50990   -3.59054    9.36465
       O    17.19418   -2.95484    8.63296
      H1    17.97439   -2.66075    8.20029
       H    14.40574   -2.14555    7.08907
       O    13.74703   -2.76328    7.27813
      H1    14.04350   -3.29972    8.06400
       H    10.86815    0.02698    5.25517
       O    10.33286   -0.32565    5.97786
      H1     9.50932    0.24042    5.93506
       H    12.98041    4.08970    4.75406
       O    13.36709    3.50645    4.05658
      H1    13.58567    2.70166    4.61318
       H    17.86846   -2.46713   13.73503
       O    17.23606   -2.16107   13.07529
      H1    16.40069   -2.15015   13.58988
       H     8.97568   -5.01711    5.04073
       O     9.82874   -4.96826    5.45548
      H1     9.91031   -4.06555    5.74767
       H     9.55484   -1.06995   10.62797
       O    10.49892   -1.16904   10.67748
      H1    11.04657   -0.70883    9.99852
       H    16.09803    4.77115    9.25831
       O    15.81324    3.98022    9.70578
      H1    16.67085    3.49422    9.62059
       H    12.30940    0.97982    3.02167
       O    13.16586    0.55764    3.04989
      H1    12.91060   -0.20282    3.61019
       H    14.83791   -5.68600    4.63216
       O    14.70284   -5.30134    3.75873
      H1    13.71816   -5.38346    3.72066
       H    15.49528   -7.69034    4.86499
       O    15.41366   -7.28376    5.74178
      H1    14.72154   -7.78393    6.13782
       H    15.29729    1.75095    4.92641
       O    14.74259    1.63959    5.69443
      H1    15.43991    1.52264    6.35018
       H    10.43761    1.21079    8.07801
       O     9.84366    1.52157    8.75488
      H1    10.49984    1.78620    9.45670
       H    15.03869   -3.79383   10.21872
       O    14.11653   -3.78959    9.95012
      H1    13.60335   -3.16649   10.51207
       H    19.52874    1.96120    0.04813
       O    18.63009    1.99922   -0.33583
      H1    18.66853    2.91262   -0.71302

