180
frame 0 | Written by MDAnalysis XYZWriter (release 2.4.3)
       H     4.19261  -10.88355   10.18974
       O     3.40241  -10.29838   10.27871
      H1     2.64175  -10.93560   10.19627
       H     7.76388   -8.92612    8.64656
       O     7.90166   -8.04967    9.07356
      H1     8.13214   -8.22529   10.01700
       H     6.74112    3.30508   11.88436
       O     7.61258    2.98007   12.27337
      H1     7.73910    2.19744   11.76172
       H     8.96221   -0.00207   12.33278
       O     9.05369   -0.99193   12.39691
      H1     8.98189   -1.22440   13.34036
       H     2.85391   -1.76656   14.55303
       O     3.73640   -1.69043   14.96280
      H1     3.58379   -0.92250   15.49631
       H    11.36184   -2.00793   16.19162
       O    10.59756   -2.01609   16.80832
      H1    10.57331   -2.95882   17.02608
       H     6.50517   -8.66651   18.64195
       O     5.71179   -8.42304   18.15945
      H1     5.06629   -9.11824   18.30301
       H    11.91091   -4.81068   13.90498
       O    12.55315   -4.72527   14.59216
      H1    11.97006   -4.60325   15.39381
       H     4.07890    0.13038    8.68855
       O     4.33021    0.13253    7.72778
      H1     4.39429    1.08608    7.68329
       H     9.12267   -1.29248   19.57848
       O     8.87352   -1.25746   18.65215
      H1     9.69696   -1.49317   18.17426
       H     2.25678    0.47711   10.02126
       O     3.12406    0.14094   10.11129
      H1     3.05159   -0.78566    9.88814
       H     6.63332   -1.67283   11.39754
       O     6.25345   -1.78145   10.53954
      H1     6.52561   -2.72014   10.39590
       H     6.31190   -4.81891   18.26226
       O     5.46103   -5.15578   17.98707
      H1     5.46282   -4.74302   17.09983
       H     1.29243   -6.45256   16.70195
       O     1.80143   -7.13894   17.07014
      H1     2.07249   -7.55782   16.20082
       H     4.33916   -6.37130    9.20218
       O     3.69322   -6.29468    9.93028
      H1     4.10162   -5.68050   10.58029
       H     6.14085   -6.34649   16.82799
       O     6.50480   -6.86456   16.05367
      H1     6.38916   -7.71828   16.49652
       H     8.43156   -6.90111   17.35806
       O     8.89357   -6.23998   17.93939
      H1     8.70678   -6.61009   18.79946
       H     7.99135   -3.22432   19.03296
       O     7.67280   -4.06030   19.43472
      H1     8.40918   -4.61341   19.19456
       H    11.35586   -0.81274   11.80895
       O    11.69839   -0.79891   10.91682
      H1    12.54891   -1.12094   11.24273
       H    10.55705   -6.22882   11.60736
       O    10.41263   -5.60189   12.38135
      H1     9.52014   -5.29161   12.23108
       H     5.47354   -7.50380   10.66530
       O     5.54832   -7.72206   11.58942
      H1     4.70980   -8.17834   11.80213
       H     8.54550  -11.32822   13.94832
       O     8.25466  -12.08239   13.46687
      H1     7.49523  -12.42306   14.02675
       H    11.54556    0.31697   14.51936
       O    12.38079   -0.08100   14.21399
      H1    13.08350    0.52056   14.49297
       H     0.65536   -6.39545   12.54727
       O     1.10931   -6.50404   11.69782
      H1     0.33191   -6.67850   11.11665
       H     1.96482   -9.20229   15.21216
       O     1.81890   -8.39494   14.68643
      H1     2.41440   -8.51414   13.90162
       H     4.86025   -9.23029   14.76009
       O     5.44174  -10.02286   14.86666
      H1     5.21113  -10.27066   15.78604
       H     5.09787    1.31999   16.71079
       O     5.86666    1.20068   16.10508
      H1     6.51111    0.64784   16.54381
       H     3.04850   -7.79851   11.83668
       O     3.12401   -8.62198   12.39750
      H1     3.18741   -9.35039   11.74075
       H     2.41878   -5.51823    8.80998
       O     1.61921   -5.21263    8.33459
      H1     1.42554   -5.99762    7.83571
       H     1.66859   -0.25039   12.67831
       O     1.40488   -0.84354   13.39226
      H1     1.00155   -0.18860   13.93264
       H    10.58825   -6.93606   13.35292
       O    11.06189   -7.69768   13.87430
      H1    10.41832   -7.93560   14.51470
       H     1.25199   -9.16791   12.57011
       O     0.39666   -9.58327   12.32088
      H1     0.05715   -9.14071   11.46194
       H     9.07642    1.63448    9.76577
       O     8.63177    1.19269   10.51107
      H1     8.09194    0.51497   10.08101
       H    11.32386   -5.02449   17.82522
       O    10.96516   -4.87155   16.98373
      H1    10.14148   -5.36097   17.14809
       H     0.87089   -2.20671    8.85272
       O     1.52144   -2.18305    9.56313
      H1     2.32115   -2.49531    9.06443
       H     5.04901    0.78591   13.02865
       O     4.25213    1.19735   12.59737
      H1     4.11469    0.58792   11.85130
       H     0.81902   -6.80069   14.45214
       O     0.07885   -6.22396   14.20518
      H1     0.43586   -5.37594   14.56203
       H     9.08110  -11.47935   10.74530
       O     9.18698  -10.64473   10.29185
      H1     8.74522  -10.85649    9.45179
       H     6.47578   -5.73395    8.27745
       O     5.88843   -6.51503    8.09395
      H1     6.48631   -7.14130    8.55841
       H    11.08221   -2.18186    9.74864
       O    11.10939   -2.89703    9.08879
      H1    10.95416   -2.48508    8.25939
       H     6.26862   -6.07103   14.51395
       O     5.88219   -5.80498   13.66483
      H1     5.98356   -6.58081   13.09324
       H    12.79376   -3.06991   15.01487
       O    12.96096   -2.31452   15.59775
      H1    12.70257   -1.57991   15.01284
       H     7.16470   -3.63508    7.48239
       O     7.52384   -4.29632    8.14285
      H1     8.45448   -4.15853    8.16402
       H     3.63122   -6.13827   15.56966
       O     3.30323   -5.85382   14.71963
      H1     4.18083   -5.82670   14.26517
       H     4.99513   -1.28333   13.87504
       O     5.86028   -1.14052   13.43450
      H1     6.56784   -1.21318   14.02632
       H    11.22647   -6.62041    9.45469
       O    10.85172   -7.22855   10.14229
      H1    10.36648   -7.86970    9.61086
       H    10.33357   -8.55494   12.51817
       O     9.45571   -8.94015   12.26141
      H1     9.68408   -9.52458   11.51426
       H     8.80568   -1.16175   15.28496
       O     8.35111   -1.98919   15.09561
      H1     8.48795   -2.29112   15.99288
       H     7.37886   -9.26761   14.56070
       O     8.37596   -9.21160   14.72777
      H1     8.67859   -9.19711   13.83176
       H    11.99186   -4.51715    8.73941
       O    12.20235   -5.38874    8.49415
      H1    12.27924   -5.24862    7.52706
       H     3.52883  -11.97173   13.40699
       O     4.45687  -12.01004   13.36178
      H1     4.80666  -11.29620   14.00083
       H     6.87970   -6.66507    6.49096
       O     7.57529   -7.18135    6.08675
      H1     7.88959   -6.68281    5.34775
       H     2.71856   -4.39526   17.50631
       O     3.18439   -3.60236   17.69658
      H1     4.04011   -3.98827   17.76766
       H     7.12171   -4.86836   12.82511
       O     7.60471   -4.44688   12.09732
      H1     7.75911   -3.55256   12.37820
       H     4.97770   -3.55099   15.31627
       O     5.73813   -3.63660   15.92565
      H1     6.44063   -3.15527   15.42537
       H     9.49098    0.96987   16.50552
       O     9.51172    0.64294   15.59251
      H1     9.05336    1.38407   15.11778
       H     4.76094   -2.71791    8.58834
       O     3.98121   -3.24824    8.73322
      H1     4.29123   -3.82137    9.45460
       H     1.25206   -4.72397   11.43157
       O     1.29475   -3.81367   11.73684
      H1     1.44286   -3.29846   10.93543
       H     3.08510   -3.82560   11.93900
       O     3.97658   -3.89118   11.60533
      H1     4.38424   -3.26583   12.21048
       H     2.63881   -9.40662    8.78706
       O     2.31272   -8.47756    8.48645
      H1     2.56447   -7.92711    9.24775

