180
frame 2 | Written by MDAnalysis XYZWriter (release 2.4.3)
       H     7.27617   -4.02998   -3.57050
       O     6.81604   -4.88606   -3.72238
      H1     6.03064   -4.60567   -4.23746
       H     7.13337   -8.24876   -1.82539
       O     7.80602   -8.69139   -1.21264
      H1     7.14747   -9.15559   -0.70587
       H    11.52225   -7.32141    2.82655
       O    12.26555   -7.73201    3.21410
      H1    12.77089   -7.86534    2.37205
       H     7.63134  -13.22274    3.44683
       O     8.44678  -12.65918    3.44426
      H1     8.07854  -11.77534    3.07093
       H     6.51432   -4.03124    2.13003
       O     5.78908   -3.82171    1.52115
      H1     6.29122   -3.34716    0.85176
       H     0.35275   -4.82599   -1.18908
       O     0.17176   -5.21928   -2.04348
      H1    -0.51573   -5.89168   -1.80099
       H     5.12318  -11.03018    7.51282
       O     4.54802  -11.46128    8.14323
      H1     3.82721  -10.83690    8.20065
       H     9.61184   -4.28975   -5.25453
       O     9.51836   -5.02291   -4.58902
      H1     8.57030   -5.08943   -4.52831
       H     8.94158   -9.79712    3.43594
       O     8.34706   -9.98264    2.65310
      H1     7.70336   -9.28456    2.76077
       H    11.92065  -11.64173    0.81077
       O    12.23255  -10.82513    0.36880
      H1    11.47850  -10.59565   -0.13458
       H     6.66436   -9.93625    7.14046
       O     6.21078  -10.42824    6.44937
      H1     6.90092  -11.13498    6.23506
       H     1.46927  -12.19495    2.43543
       O     0.80620  -12.76140    1.96251
      H1     0.37560  -12.16790    1.40011
       H    -0.10362   -6.85409    3.76578
       O    -0.82313   -6.30823    4.04846
      H1    -0.43271   -6.06574    4.92647
       H     1.81648   -4.61991   -3.70629
       O     2.74148   -4.24171   -3.69067
      H1     2.78138   -3.76430   -2.81340
       H     4.73165   -3.09904    3.02458
       O     3.99046   -2.65719    3.47013
      H1     3.34331   -3.39443    3.47683
       H     4.36168   -2.96353   -0.97129
       O     3.49521   -3.36071   -1.04432
      H1     3.63796   -4.32684   -0.85467
       H     4.52568   -9.94610    5.27098
       O     3.71644   -9.62351    4.82545
      H1     3.67217  -10.14561    4.03363
       H     8.30599   -4.56857    3.36161
       O     7.38481   -4.87172    3.43204
      H1     7.50601   -5.30460    4.29619
       H     1.80943   -8.72491    7.28750
       O     1.05267   -8.42550    6.78398
      H1     1.47292   -8.27353    5.93471
       H     6.09855   -7.55467    8.74645
       O     5.41578   -7.94216    9.31547
      H1     5.34046   -7.31721   10.02122
       H     6.66851   -2.44029    6.49045
       O     7.49132   -2.72717    6.04634
      H1     7.12935   -3.59209    5.77684
       H    10.50679   -6.91460   -1.23367
       O     9.60053   -6.65262   -1.03342
      H1     9.09663   -7.46898   -1.14341
       H     4.09815   -7.97185   -0.16167
       O     4.44767   -8.56060    0.52651
      H1     4.16710   -8.09530    1.29860
       H     5.74948   -7.67869   -6.09946
       O     4.82391   -7.68382   -6.07010
      H1     4.49843   -8.03216   -5.24427
       H     7.07549   -6.39414    0.13724
       O     6.54041   -5.84556   -0.45716
      H1     6.19311   -5.14660    0.14709
       H     2.12650  -10.60547    1.63437
       O     2.30219  -10.68722    2.56877
      H1     3.09238  -11.23503    2.54161
       H     9.17370   -8.20463    5.27741
       O     9.73263   -8.98856    5.18174
      H1    10.61361   -8.66162    5.41488
       H    11.92188  -11.04058    4.15527
       O    12.08641  -10.50767    3.34654
      H1    11.75942   -9.65023    3.66967
       H     1.38817   -7.70280   -2.97975
       O     1.88065   -7.61787   -3.75945
      H1     2.61039   -8.16489   -3.48074
       H     5.92890   -6.60326   -3.49882
       O     5.57921   -7.09509   -2.72222
      H1     6.04590   -6.63853   -1.98553
       H     7.93668  -13.05170    7.15184
       O     8.23725  -12.40181    6.43785
      H1     8.06186  -12.85534    5.64038
       H     5.15262  -13.07330    2.56281
       O     4.65509  -12.37003    2.05130
      H1     5.20080  -12.13033    1.31197
       H    10.00322   -1.56957    0.68586
       O    10.36546   -1.90792    1.49815
      H1    11.02557   -1.20431    1.64327
       H     9.37534   -4.93916   -1.48305
       O     9.65576   -4.00000   -1.60521
      H1    10.55211   -4.25793   -1.97426
       H     8.84462  -10.73384    7.44779
       O     8.66216   -9.77936    7.58045
      H1     9.24108   -9.45512    6.89165
       H     6.22868  -14.68946    4.45003
       O     6.45269  -14.30061    3.56120
      H1     5.86635  -14.81322    3.01064
       H     7.48575   -1.91752   -0.85311
       O     7.00645   -2.72377   -0.57411
      H1     7.50775   -3.37480   -1.11552
       H     9.90684   -9.62843   -3.78324
       O     9.31103   -9.18118   -4.39344
      H1     8.56623   -9.68719   -4.02544
       H     7.01136   -5.31568    8.59366
       O     7.35128   -6.06685    8.06813
      H1     7.97167   -6.41251    8.71101
       H     9.38993  -13.91803   -1.91064
       O     8.89765  -13.35626   -1.35215
      H1     7.97370  -13.46888   -1.67705
       H     2.28243   -4.31059    1.28675
       O     1.39569   -4.53792    0.94742
      H1     0.92188   -3.71698    0.84381
       H     3.40150   -6.14796    3.22184
       O     3.94230   -6.92808    3.00171
      H1     3.68953   -7.74183    3.45012
       H    -0.52656  -11.35771   -0.50464
       O    -0.12225  -10.68550    0.07543
      H1    -0.47803  -10.81726    0.95591
       H     2.53010   -6.19452   -1.51712
       O     3.44337   -6.25367   -1.16233
      H1     3.96917   -6.11767   -1.91922
       H     0.74905   -9.04326    3.80416
       O     1.14251   -8.22077    3.67567
      H1     1.31062   -8.13942    2.70226
       H     9.13017  -10.00340   -1.35818
       O     9.91707  -10.41055   -1.71191
      H1     9.71870  -11.33688   -1.60875
       H     3.51242   -1.73721    1.90022
       O     3.23044   -0.87127    1.52232
      H1     2.29189   -0.91402    1.61105
       H     4.89560   -8.79529   -3.20299
       O     4.24948   -9.36410   -3.66121
      H1     3.98749   -9.91924   -2.91372
       H     6.97717  -10.25782    0.96173
       O     6.32321  -10.53241    0.29434
      H1     5.52535   -9.99057    0.42377
       H     9.34485  -13.23190    2.01992
       O     9.90716  -13.68495    1.32428
      H1     9.39701  -13.49376    0.50022
       H     1.80040   -4.75932    4.46850
       O     2.27211   -4.68547    3.63741
      H1     1.53936   -4.81861    3.09584
       H    11.45384   -4.96914    1.00991
       O    10.93669   -5.69559    1.38874
      H1    10.57255   -6.06324    0.54687
       H     5.88153  -11.00882   -4.26331
       O     6.79088  -10.72802   -4.17972
      H1     7.12068  -11.08337   -5.02104
       H     8.24579   -1.46189    4.67487
       O     8.66544   -0.95561    3.94065
      H1     9.24750   -1.62968    3.51284
       H     4.36657  -11.93009   -1.82144
       O     3.64740  -11.29347   -1.82565
      H1     2.92216  -11.81231   -2.17708
       H     0.88986   -7.73320    0.16153
       O     0.82254   -7.48299    1.13318
      H1     0.96866   -6.53934    1.08968
       H     6.02845   -7.49758    1.75590
       O     6.93190   -7.60803    2.07683
      H1     7.14785   -6.73307    2.48778
       H     7.74659   -6.22570    6.42816
       O     7.95727   -6.57644    5.53249
      H1     8.92205   -6.40863    5.57265
       H    10.32864   -5.17033    2.95345
       O    10.16601   -5.34874    3.93351
      H1    10.99345   -4.99597    4.35289
       H     0.34372   -9.37061   -0.93324
       O     0.58679   -8.57374   -1.49773
      H1    -0.30223   -8.23589   -1.61966

