180
frame 11 | Written by MDAnalysis XYZWriter (release 2.4.3)
       H    -6.01026    2.52422   -4.37250
       O    -5.74863    3.46467   -4.32534
      H1    -5.38142    3.48928   -5.20620
       H   -11.18834   -3.63056   -3.27097
       O   -11.45321   -3.11526   -2.51280
      H1   -12.26055   -2.53655   -2.80126
       H    -6.51820    1.21205   -7.99529
       O    -6.56386    0.28671   -7.67979
      H1    -7.49196    0.09475   -7.81123
       H    -4.60110    7.62114    0.83756
       O    -3.99849    7.21810    0.18541
      H1    -3.52557    6.56351    0.77133
       H   -10.44759    8.62107   -3.02654
       O   -10.44851    7.66922   -2.81169
      H1   -11.28245    7.49861   -3.26970
       H    -9.98598   -2.25053    0.20439
       O    -9.15511   -1.77521    0.46392
      H1    -8.55672   -2.49134    0.73408
       H    -0.96727    4.42428   -4.49292
       O    -0.23053    3.74388   -4.58343
      H1     0.30652    4.04360   -3.81529
       H    -8.91320    2.95573   -1.20763
       O    -9.33837    2.91584   -0.35300
      H1    -8.79081    2.29669    0.08207
       H    -3.17834    4.96503   -3.48596
       O    -2.70789    4.99578   -4.32476
      H1    -3.22913    5.68477   -4.76235
       H   -13.23870    4.12621   -1.46105
       O   -13.31053    3.59575   -0.69801
      H1   -14.24107    3.66583   -0.37631
       H    -2.67151   -0.63266   -3.90007
       O    -1.94766   -0.68460   -3.25444
      H1    -1.53459    0.18407   -3.35802
       H   -11.08408    0.48164   -1.75380
       O   -11.74905    1.08378   -1.34626
      H1   -11.37065    1.93779   -1.61143
       H    -2.86408   -0.80054   -1.45415
       O    -2.68959   -1.02454   -0.49486
      H1    -3.34375   -0.49249   -0.00792
       H    -5.03493    5.09165   -1.91992
       O    -4.36117    4.40398   -2.20933
      H1    -4.75032    4.30814   -3.12602
       H   -12.43980    6.49644   -5.58313
       O   -11.73081    6.12100   -6.12301
      H1   -11.80079    6.49416   -6.98094
       H    -2.27995    2.24184   -6.88590
       O    -3.06248    2.51555   -7.35836
      H1    -2.76904    2.61353   -8.27187
       H    -7.80924    8.10161   -7.00528
       O    -6.97090    8.13568   -7.51866
      H1    -6.86612    7.24046   -7.82375
       H   -13.93092   -0.55012   -4.94990
       O   -13.88445   -0.56437   -5.89716
      H1   -13.09538   -1.12150   -6.04565
       H    -6.48640    6.67746   -1.12894
       O    -5.83865    6.67780   -1.79713
      H1    -5.18370    7.08186   -1.25549
       H   -11.52364    0.45366    0.12661
       O   -11.42546    0.02852    0.98687
      H1   -10.53551   -0.31758    0.86326
       H    -7.03757    9.99893   -2.07144
       O    -7.75938    9.62019   -1.50958
      H1    -7.74194   10.27509   -0.74454
       H    -9.97231    6.53863    3.25017
       O    -9.43989    5.76831    3.20793
      H1    -9.85126    5.41602    2.39135
       H    -8.34924    3.85748    4.26803
       O    -8.84002    3.01561    4.29272
      H1    -8.39816    2.42334    4.88839
       H   -10.13281   -0.71468    3.38448
       O    -9.16299   -1.05555    3.17166
      H1    -9.20402   -1.45617    2.28537
       H    -6.70372   -3.76677    1.59742
       O    -6.76465   -2.87959    1.26736
      H1    -6.00757   -2.84830    0.69798
       H    -8.62248   -1.33517   -3.39176
       O    -7.80775   -1.32593   -3.88032
      H1    -7.16669   -1.23197   -3.19024
       H    -7.37619    6.23836    2.48669
       O    -6.55886    6.59781    2.80637
      H1    -6.09519    5.82406    3.14861
       H    -5.84156   -0.13684   -1.44914
       O    -6.31990   -1.00233   -1.59308
      H1    -5.58426   -1.61095   -1.37855
       H   -12.16790    3.62379   -5.77516
       O   -11.74957    3.22242   -5.04932
      H1   -11.20337    3.94110   -4.72066
       H    -8.99852   -0.60420   -5.34031
       O    -8.96754   -0.54319   -6.31006
      H1    -9.06296    0.42450   -6.38525
       H    -1.20808    7.51343   -3.74073
       O    -0.94757    6.85190   -3.08366
      H1    -1.47246    6.12084   -3.37367
       H   -11.15574    2.07568    2.17974
       O   -11.13492    2.60876    2.99177
      H1   -10.15872    2.63088    3.20395
       H   -15.05382    0.83799   -1.25911
       O   -14.88962    1.35352   -2.06258
      H1   -13.97730    1.73407   -1.77423
       H   -11.29916   -2.66609   -6.29081
       O   -11.65390   -1.93928   -6.83177
      H1   -10.85204   -1.45507   -7.02547
       H    -5.37310    2.83441   -1.96248
       O    -5.66463    1.93257   -1.81631
      H1    -5.76370    1.93006   -0.87867
       H    -4.97339   -0.16848   -4.39414
       O    -4.30096   -0.77952   -4.65165
      H1    -4.33309   -0.57716   -5.61240
       H    -5.87097    5.25985   -8.16533
       O    -6.73110    5.51731   -8.61480
      H1    -6.50575    5.64570   -9.52461
       H   -10.22976    7.33203   -5.82333
       O    -9.35800    7.70510   -5.71727
      H1    -8.96187    7.04634   -5.01166
       H    -9.70347    5.53341    0.40491
       O   -10.58148    5.18586    0.56734
      H1   -10.32270    4.28137    0.38525
       H    -4.39657    3.36837   -0.34919
       O    -4.45168    3.43903    0.59861
      H1    -3.94076    4.28646    0.66681
       H    -9.81056    2.40506   -8.40555
       O    -9.76378    2.42447   -9.38466
      H1   -10.06683    1.56255   -9.65604
       H    -4.83630    9.56474   -3.68481
       O    -5.81179    9.57644   -3.44812
      H1    -6.04666    8.85326   -4.10600
       H    -7.13990    2.78291   -2.64073
       O    -8.02287    3.16710   -2.85569
      H1    -7.76512    3.81315   -3.55304
       H    -9.02174    2.78020   -6.22019
       O    -9.68637    2.12803   -6.51075
      H1   -10.50397    2.38272   -6.04305
       H    -8.45404    6.01457   -1.33158
       O    -8.04091    6.47069   -0.54830
      H1    -8.21676    7.40036   -0.77446
       H    -6.87992    3.80043   -8.74633
       O    -7.14242    2.88118   -8.66593
      H1    -8.03753    2.94625   -9.05128
       H   -12.34139    7.14171   -0.41825
       O   -12.55719    7.92167   -0.94149
      H1   -11.76806    8.04474   -1.49027
       H    -2.98861    7.12373   -7.81908
       O    -3.78291    6.96530   -7.29878
      H1    -4.34578    7.63111   -7.75301
       H    -4.12179    3.91406   -6.97326
       O    -4.85023    4.60293   -6.76691
      H1    -4.45054    5.49725   -6.75278
       H    -7.78357   -2.81057   -5.00578
       O    -8.19595   -3.53038   -5.52495
      H1    -8.39851   -3.19427   -6.45149
       H    -6.70333    0.43449    1.76895
       O    -7.59221    0.74387    1.58019
      H1    -8.10568    0.03516    2.00874
       H    -3.53009    0.47092   -7.33904
       O    -3.87933   -0.45114   -7.33094
      H1    -4.81507   -0.22871   -7.43770
       H   -12.68871    6.24488    1.71520
       O   -13.26734    5.52793    1.36198
      H1   -12.60188    5.02516    0.88395
       H    -4.41211   -0.36733    1.59690
       O    -4.60023    0.37325    0.92316
      H1    -4.60914    1.18229    1.40909
       H    -9.37714   -1.23759   -1.26832
       O    -9.77245   -1.02737   -2.13438
      H1   -10.26327   -1.85896   -2.28995
       H   -13.34374    4.75239   -4.20469
       O   -13.61278    4.93423   -3.29289
      H1   -14.50568    4.49111   -3.36193
       H    -8.65716    7.21154   -3.22082
       O    -8.09598    6.56427   -3.70971
      H1    -7.26361    6.65050   -3.25110
       H    -6.82521    0.68623   -5.63050
       O    -6.84496    1.07455   -4.75174
      H1    -7.38711    0.43907   -4.19082
       H    -7.26782    4.13589   -5.61525
       O    -7.98402    4.15639   -6.31265
      H1    -7.51573    3.90886   -7.11869
       H    -6.90137    2.61256    2.08552
       O    -6.40347    3.28644    2.59970
      H1    -5.84106    3.64046    1.82681

