180
frame 0 | Written by MDAnalysis XYZWriter (release 2.4.3)
       H    11.57653  -13.17340   -4.22231
       O    10.76888  -13.20212   -4.74891
      H1    10.87376  -12.43933   -5.29914
       H    15.89134  -15.29118   -1.99341
       O    16.37836  -15.57496   -2.80029
      H1    17.26191  -15.79384   -2.40656
       H    14.61272   -9.64140  -12.84084
       O    14.58104   -9.28618  -13.71301
      H1    15.11752   -8.48547  -13.68149
       H    14.92704   -8.03284   -7.17341
       O    15.09609   -8.99814   -7.02396
      H1    14.69396   -9.17788   -6.16533
       H    16.56810   -6.74880   -4.26871
       O    16.54715   -7.02939   -3.32346
      H1    17.35249   -6.62743   -3.01696
       H    13.62986  -10.46770   -9.05475
       O    14.35740  -11.02434   -8.70189
      H1    14.75226  -10.34487   -8.07999
       H    14.48214   -5.14848   -5.56707
       O    13.96775   -5.34057   -6.37506
      H1    13.12572   -5.64656   -6.03276
       H    19.48289   -6.27084  -12.71945
       O    19.08802   -6.15568  -11.84542
      H1    18.65480   -5.25941  -11.87432
       H    13.79590   -5.68267   -2.81611
       O    13.48295   -5.00307   -3.43660
      H1    13.78515   -4.19543   -2.92434
       H    17.83160  -15.28705   -5.99426
       O    18.45542  -15.65137   -5.32150
      H1    18.40767  -16.60135   -5.42210
       H    12.97520   -8.75717   -4.20585
       O    13.67927   -9.13258   -3.58292
      H1    13.24306   -9.99878   -3.39098
       H    13.79706   -4.37832   -8.07426
       O    13.41412   -4.17110   -8.93493
      H1    12.57762   -4.54911   -8.82675
       H    18.25961   -6.42107   -5.85714
       O    17.45144   -6.94772   -5.86846
      H1    16.98565   -6.51293   -6.61197
       H    12.60131   -8.05385   -0.71456
       O    12.65359   -7.44546   -1.48055
      H1    13.08127   -8.02688   -2.12350
       H    11.83254   -9.19490   -9.41426
       O    12.29097   -9.78748  -10.05299
      H1    11.66572  -10.52179  -10.09701
       H    19.28546   -3.04316   -6.26115
       O    18.42516   -3.41314   -6.53581
      H1    17.87643   -2.60718   -6.71333
       H    17.86391   -3.48029   -2.99665
       O    17.28520   -2.70175   -2.88853
      H1    17.04436   -2.49742   -3.80123
       H    16.74906  -14.15889  -10.22559
       O    17.59296  -13.87807   -9.85785
      H1    18.08501  -14.70154  -10.02643
       H    18.67197  -10.43350  -12.87537
       O    18.29107  -11.23590  -12.50558
      H1    18.36473  -11.01200  -11.57353
       H    15.97192   -9.38092    2.24653
       O    16.46848   -8.56137    2.24327
      H1    16.53109   -8.39983    1.27988
       H    16.86779  -14.82310   -0.20081
       O    17.66549  -14.31915    0.03509
      H1    17.49548  -14.25533    0.98278
       H    11.87922  -15.92798  -11.23615
       O    12.50009  -15.34765  -11.73983
      H1    13.23719  -15.25906  -11.11053
       H    17.21625  -12.39734   -7.30257
       O    17.58886  -11.67702   -7.92209
      H1    17.85678  -12.15137   -8.73713
       H    16.40140  -13.26499   -3.55806
       O    15.53454  -12.83493   -3.70398
      H1    15.84985  -11.92497   -3.83549
       H    17.26034   -5.42425    0.14174
       O    18.14585   -5.50919   -0.31366
      H1    18.73284   -5.16388    0.41387
       H    12.16758  -11.57570   -7.05307
       O    11.29955  -11.15122   -6.87033
      H1    11.58834  -10.31400   -6.41394
       H    13.78740  -12.59114   -3.35982
       O    12.85357  -12.27222   -3.33278
      H1    12.60815  -12.56722   -2.38796
       H    18.82297  -14.21852   -4.14502
       O    18.84772  -13.34369   -3.68639
      H1    19.35881  -12.87489   -4.30862
       H    18.83134  -16.85630   -9.08410
       O    19.17742  -16.12063   -8.52003
      H1    18.54897  -16.09688   -7.82592
       H    16.37111   -6.20818   -9.30748
       O    16.75470   -6.08152   -8.42689
      H1    17.50358   -5.56469   -8.60217
       H    18.87226   -4.18153   -8.01250
       O    18.76754   -4.36596   -8.99654
      H1    19.36089   -5.14387   -9.04383
       H    17.60950  -10.16795   -6.47518
       O    17.96880   -9.43275   -5.98238
      H1    17.48985   -8.57255   -6.13476
       H    15.39299   -3.43204   -9.07745
       O    16.27490   -3.00211   -9.09925
      H1    16.93437   -3.68808   -9.29392
       H    10.08294   -7.75808   -7.92953
       O    10.36867   -8.05614   -8.79778
      H1    10.34530   -7.19530   -9.26270
       H    10.54266   -5.51706   -5.42962
       O    11.48333   -5.85391   -5.29165
      H1    11.74487   -5.11213   -4.63043
       H    16.78222  -18.23405   -5.60683
       O    17.71848  -18.55641   -5.54618
      H1    17.72263  -19.05118   -6.33832
       H    16.51228   -6.36779  -13.49761
       O    16.71816   -7.04483  -12.81670
      H1    17.54577   -6.68487  -12.42710
       H    15.11074  -15.85848  -10.73874
       O    15.08678  -14.87947  -10.71199
      H1    15.02927  -14.61049  -11.69791
       H    16.19201   -8.46155   -1.47521
       O    16.06864   -8.77747   -0.56050
      H1    16.65086   -9.62232   -0.52359
       H    15.70132  -10.71800  -14.19346
       O    16.39765  -10.86145  -14.82721
      H1    17.03522  -11.30252  -14.22303
       H    17.07249  -10.16520   -9.11949
       O    17.40326   -9.61265   -9.90950
      H1    17.94600   -8.97099   -9.47574
       H    11.03938   -8.78288   -4.66728
       O    11.68329   -8.63661   -5.36761
      H1    11.63487   -7.70781   -5.57664
       H    19.72065   -5.39432   -2.65486
       O    18.78952   -5.14907   -2.92149
      H1    18.42013   -5.18073   -1.96908
       H    18.20831   -9.04859  -14.90403
       O    18.71845   -8.81320  -14.08308
      H1    18.05096   -8.43469  -13.50352
       H    18.60617   -8.87516   -0.36164
       O    18.93881   -8.31077    0.36681
      H1    18.73846   -7.41490    0.04632
       H    15.04280  -15.35739   -5.44541
       O    14.81082  -14.42948   -5.64522
      H1    14.93848  -13.94639   -4.81299
       H    16.81205   -9.53777   -4.40011
       O    16.33056  -10.12471   -3.82235
      H1    15.70432   -9.44866   -3.50246
       H    11.71193  -13.81684   -8.34067
       O    10.75435  -13.86884   -8.56478
      H1    10.75956  -14.83426   -8.33246
       H    15.85519  -14.51217   -7.41830
       O    16.80224  -14.31444   -7.36531
      H1    17.00924  -14.05692   -8.26005
       H    13.66587  -12.77870   -8.24122
       O    13.34149  -13.57800   -7.82863
      H1    13.85143  -13.80601   -7.07135
       H    19.14594  -14.68420  -13.70771
       O    18.84959  -14.02738  -14.32320
      H1    18.54614  -13.31284  -13.74895
       H    12.70177  -13.28030   -0.47553
       O    12.81933  -14.01348   -1.06838
      H1    11.93587  -14.42842   -1.08185
       H    18.91799   -9.50357   -2.65853
       O    18.38126   -9.81746   -1.94921
      H1    17.67482  -10.14367   -2.50354
       H    16.37281  -11.27677  -11.76248
       O    15.43203  -11.21432  -11.68348
      H1    15.25658  -11.23002  -10.77866
       H    15.75615   -7.10111  -10.99855
       O    15.33723   -7.49841  -10.24012
      H1    15.79480   -8.34016  -10.26732
       H    13.63528   -7.19769  -11.12139
       O    12.84225   -7.44091  -11.58394
      H1    12.64748   -8.29258  -11.24217
       H    19.20623  -16.54938   -1.47597
       O    18.66605  -16.97706   -2.15144
      H1    19.23023  -17.41595   -2.75546
       H    15.98474  -16.45813   -4.14024
       O    15.51297  -16.95544   -4.86197
      H1    15.12378  -17.71087   -4.35525
       H    11.04753  -12.86042  -10.13588
       O    10.81768  -12.49751  -10.99349
      H1    11.40309  -12.93788  -11.62512
       H    17.43894  -12.43824    0.04101
       O    17.56580  -11.49838    0.28096
      H1    18.36096  -11.63080    0.86083

