180
frame 5 | Written by MDAnalysis XYZWriter (release 2.4.3)
       H   -11.82032  -18.68760   -7.66922
       O   -12.01889  -19.25962   -8.45389
      H1   -12.32736  -20.03389   -7.95962
       H   -12.90719  -18.98489   -5.62889
       O   -13.21938  -18.10496   -6.06222
      H1   -13.01699  -17.40523   -5.32282
       H    -6.35738  -14.21125   -1.81116
       O    -6.08429  -14.86438   -2.46523
      H1    -5.14273  -14.73630   -2.28793
       H   -11.81427   -7.32667   -2.03211
       O   -11.66379   -8.26244   -2.09072
      H1   -10.81231   -8.28264   -2.57197
       H    -7.33298   -8.33069   -6.74318
       O    -7.58050   -8.69114   -5.88165
      H1    -6.98768   -8.16521   -5.31434
       H   -15.04122  -13.57693   -8.11170
       O   -15.79213  -13.62334   -7.51905
      H1   -15.84972  -14.63091   -7.51983
       H   -12.17261  -10.28768  -10.05415
       O   -12.19221   -9.73502  -10.82994
      H1   -12.96344  -10.22080  -11.29892
       H    -9.42530   -7.65018   -8.90263
       O   -10.15586   -7.09054   -8.53731
      H1   -10.61633   -6.87789   -9.32265
       H    -7.78412  -10.22136   -2.83026
       O    -7.17539  -10.95177   -2.84950
      H1    -7.11558  -11.16767   -1.88323
       H   -10.85407   -6.91154  -11.72562
       O   -11.46235   -7.00403  -10.91904
      H1   -11.59496   -8.00021  -11.00536
       H   -12.64382  -13.03716   -8.93770
       O   -13.37251  -13.62788   -9.19926
      H1   -12.86956  -14.44181   -8.95109
       H   -11.11471  -11.89870   -2.16108
       O   -11.16168  -12.76161   -2.60249
      H1   -11.99605  -13.13661   -2.17342
       H   -10.25944  -14.28814   -2.37779
       O   -10.26099  -15.22708   -2.59123
      H1   -10.23436  -15.60606   -1.70976
       H   -11.07102   -6.18177   -6.37191
       O   -11.30616   -6.34616   -5.50442
      H1   -11.05878   -7.27265   -5.45444
       H   -10.28161  -18.90940   -9.28302
       O    -9.60585  -18.47675   -9.82110
      H1    -9.89813  -17.59941   -9.72655
       H   -12.89599  -10.75275    0.02144
       O   -13.83582  -10.73947    0.26120
      H1   -14.36918  -11.00432   -0.47983
       H    -9.70083  -11.97878   -7.06584
       O   -10.24945  -11.43759   -6.55610
      H1   -10.79402  -12.07708   -6.10368
       H   -13.38603   -8.51309   -3.70818
       O   -13.66407   -8.83402   -4.58823
      H1   -14.49406   -8.42086   -4.85658
       H    -6.17739  -15.21445   -8.46544
       O    -7.16223  -15.32057   -8.47290
      H1    -7.35697  -14.58228   -7.93415
       H    -7.92374  -11.52964   -5.09767
       O    -7.30873  -11.50064   -5.83031
      H1    -7.36344  -10.59073   -6.08210
       H    -9.84746  -14.88326   -6.40135
       O   -10.76868  -15.14164   -6.32921
      H1   -11.14465  -14.41552   -5.79111
       H    -9.96085  -11.76556  -12.47006
       O   -10.37104  -10.94879  -12.70594
      H1   -11.13032  -11.10233  -12.11104
       H    -9.41617  -16.11548   -4.40495
       O    -9.06597  -16.97250   -4.64606
      H1    -8.84223  -16.80019   -5.60202
       H   -14.16773   -9.90055  -10.09694
       O   -14.59426   -9.50277   -9.32524
      H1   -13.83523   -9.02926   -8.97783
       H   -13.05936  -10.99140   -7.96564
       O   -12.31279  -11.21700   -8.54801
      H1   -11.54027  -11.32972   -7.93734
       H   -14.68604  -12.04438  -11.65846
       O   -14.34794  -11.19704  -11.81875
      H1   -15.15314  -10.79883  -12.27733
       H    -5.62175  -12.20002   -9.75206
       O    -6.07640  -11.57836   -9.08984
      H1    -5.37971  -10.91392   -8.77855
       H    -8.02123  -12.51658   -8.41828
       O    -8.52794  -12.99564   -7.76772
      H1    -7.97735  -12.75238   -6.97617
       H   -15.23721  -13.01087   -0.38925
       O   -15.31076  -12.76086   -1.29896
      H1   -16.20553  -13.09965   -1.49013
       H    -9.03048   -7.48312   -3.01371
       O    -8.98932   -8.46280   -2.98696
      H1    -9.22321   -8.56474   -3.92634
       H   -11.52342  -12.68379   -4.28409
       O   -11.87560  -12.96740   -5.14247
      H1   -12.66589  -12.41398   -5.14323
       H   -18.74140  -13.85367   -8.39405
       O   -18.07133  -13.53434   -9.00760
      H1   -17.34627  -13.18041   -8.40474
       H    -4.20450   -8.27198   -8.14261
       O    -4.57430   -9.14776   -8.27446
      H1    -5.39592   -9.05373   -8.73981
       H    -8.86357  -16.16478  -11.41285
       O    -9.01599  -15.59677  -10.61179
      H1    -8.15138  -15.53888  -10.17224
       H   -11.74336   -9.42262   -5.21392
       O   -10.84613   -9.09527   -5.20126
      H1   -10.46340   -9.61143   -5.92652
       H   -13.43318  -13.68929  -10.92770
       O   -13.61184  -14.06488  -11.81693
      H1   -13.66626  -15.04912  -11.63320
       H    -8.27023   -4.78863   -9.19382
       O    -8.50848   -5.00057   -8.23891
      H1    -9.03936   -5.78729   -8.34107
       H   -10.18396  -10.39693   -0.32624
       O   -11.05033  -10.39269   -0.73724
      H1   -11.11239   -9.51525   -1.17148
       H    -3.51255  -11.71807   -5.95721
       O    -3.44153  -12.46778   -6.54595
      H1    -4.43230  -12.62030   -6.69360
       H   -13.38443  -14.13039   -3.71890
       O   -13.47432  -14.07227   -2.74273
      H1   -14.17558  -13.36209   -2.66595
       H    -8.49769   -9.91589  -11.09965
       O    -8.56942  -10.31335  -10.24708
      H1    -7.74527  -10.77323  -10.13540
       H   -14.87156  -15.28914   -1.50753
       O   -15.45440  -15.99377   -1.15399
      H1   -16.07888  -15.41022   -0.72632
       H    -7.87264   -8.96778   -9.44281
       O    -7.55611   -8.36221   -8.76357
      H1    -7.07108   -7.68859   -9.28105
       H    -8.67217  -14.15187  -11.65933
       O    -8.84338  -13.47470  -12.32185
      H1    -7.95626  -13.44153  -12.71082
       H    -5.52512  -10.76282   -5.21104
       O    -4.65265  -10.32609   -5.40762
      H1    -4.95040   -9.70848   -6.10729
       H   -12.72232   -8.11869   -6.86406
       O   -12.82380   -8.17143   -7.80263
      H1   -11.95077   -7.95626   -8.11921
       H   -10.88481  -16.28687    0.19738
       O   -10.02139  -15.78932    0.01665
      H1    -9.49445  -16.06062    0.74806
       H   -14.10975  -16.98989  -10.77075
       O   -13.21373  -16.63865  -10.85936
      H1   -12.93312  -16.84547   -9.93842
       H    -5.80175  -10.03018   -2.88134
       O    -5.24139   -9.28650   -3.06825
      H1    -4.94815   -9.40260   -3.98676
       H   -13.47048  -18.26550   -3.82634
       O   -13.95772  -18.93325   -3.28483
      H1   -14.79264  -19.05878   -3.78417
       H   -15.35484  -10.85178   -3.84004
       O   -16.19930  -10.71798   -3.37829
      H1   -16.07492  -11.12308   -2.51339
       H   -14.83561  -11.40012   -6.69242
       O   -13.96740  -11.39798   -6.33549
      H1   -13.97743  -10.45440   -5.94620
       H    -3.54523  -14.63332   -7.70668
       O    -4.37951  -14.57253   -8.14654
      H1    -4.20797  -13.96671   -8.84029
       H   -13.78656   -6.11092  -10.14009
       O   -13.46547   -5.78481   -9.30272
      H1   -13.60277   -6.54199   -8.76063
       H   -15.38204  -17.34749   -7.25713
       O   -15.93178  -16.53666   -7.45666
      H1   -16.10299  -16.76288   -8.39469
       H   -16.56377   -8.78150   -5.92235
       O   -15.90562   -8.06090   -5.85642
      H1   -16.21270   -7.41822   -6.46762
       H   -11.11141  -16.01570   -7.89591
       O   -11.19540  -16.33080   -8.80705
      H1   -10.41612  -15.87567   -9.19929
       H    -6.00080  -15.43721   -5.18473
       O    -6.63534  -14.73755   -5.13965
      H1    -6.65903  -14.59024   -4.21086
       H   -13.19282  -16.04240   -3.53667
       O   -12.57839  -16.57645   -3.99182
      H1   -11.72438  -16.26379   -3.74282
       H   -16.28213  -13.03674   -4.90922
       O   -15.32715  -13.23086   -4.81901
      H1   -15.21581  -13.53514   -5.71869

