180
frame 3 | Written by MDAnalysis XYZWriter (release 2.4.3)
       H    -2.39029    4.02717    4.54352
       O    -2.92436    4.32171    3.78303
      H1    -3.67843    4.73859    4.33351
       H     8.32565    9.73503    2.42663
       O     8.65941    9.32346    3.25477
      H1     9.42559    9.85177    3.59599
       H     0.54367    5.41097    7.21967
       O     0.74688    4.68042    6.63708
      H1     1.07773    5.20772    5.88514
       H    -4.46537    6.70991   10.31322
       O    -3.71882    6.14116   10.06543
      H1    -3.60626    6.46206    9.14716
       H     0.03448   11.41922   12.00336
       O    -0.25906   11.41075   11.09285
      H1     0.34126   10.84622   10.62921
       H     2.31305   10.42632   12.69397
       O     3.13140   10.80622   13.06500
      H1     3.32926   10.11358   13.70455
       H     5.73548    4.53809    9.87797
       O     5.32649    5.23132    9.30400
      H1     4.99948    4.62620    8.67760
       H     3.82726   12.50734   12.72837
       O     4.20763   13.31402   12.47002
      H1     4.78245   13.09968   11.73808
       H     3.88336    8.27920    9.95860
       O     4.02356    8.63693   10.83972
      H1     4.21942    7.75522   11.22220
       H    -1.37416    4.32199   10.55333
       O    -1.52499    3.63386    9.88363
      H1    -2.30982    3.99667    9.40992
       H    -0.82916   10.19230    5.92789
       O    -1.36551    9.68380    5.30163
      H1    -0.73102    9.19823    4.77558
       H    -1.52471   11.70009    8.36653
       O    -2.14657   11.69554    9.13160
      H1    -1.46186   11.53016    9.78949
       H     1.36998    3.45416    7.96337
       O     1.82076    3.19267    8.83737
      H1     1.78025    3.98571    9.32450
       H     4.76563    2.52693    7.37721
       O     4.17050    3.34672    7.44312
      H1     3.55228    2.96597    8.09429
       H     4.55386    5.55824   12.29328
       O     4.16516    6.39144   12.59978
      H1     3.30584    6.17918   12.18648
       H     1.55186    5.66355   11.44864
       O     2.18724    4.89481   11.25426
      H1     1.78634    4.21259   11.80556
       H     1.03697   10.84444    1.39846
       O     1.49859   10.34842    2.13882
      H1     1.18671    9.43755    2.07555
       H    -0.27334   13.30126    3.40906
       O    -0.49368   13.05846    4.34774
      H1    -1.39613   12.69493    4.13659
       H     6.01844    5.28419    1.18355
       O     6.18974    5.40310    2.14818
      H1     5.48343    4.90804    2.62149
       H     4.39784   10.89532    2.44318
       O     5.00473   11.44982    1.95526
      H1     4.54212   12.27752    1.82100
       H     1.42830   15.07226    5.80216
       O     1.04041   14.21852    6.10042
      H1     0.57727   13.89945    5.27952
       H     0.87652   11.32671    7.16244
       O    -0.00152   11.68830    7.01260
      H1     0.16322   12.65087    6.81109
       H    -2.01776    6.45999   10.15702
       O    -1.09965    6.61111   10.52983
      H1    -0.64512    6.38788    9.69174
       H     6.39303   10.36853    9.79853
       O     5.81249   11.00966    9.33812
      H1     5.00787   10.67486    9.61543
       H     7.76049    7.63747    4.24174
       O     7.67067    6.71456    4.20486
      H1     6.79399    6.65889    3.78294
       H     2.72401   12.10889    8.19590
       O     2.88887   11.20056    7.86792
      H1     2.97069   11.50951    6.98917
       H    -0.78256    8.20334    0.91069
       O    -0.25962    8.03505    1.71250
      H1    -0.62794    7.19503    2.06320
       H     3.26170    3.24274    2.86432
       O     4.17747    3.01100    3.02465
      H1     4.25168    3.37769    3.90816
       H    -2.04923    3.66553    6.71601
       O    -1.56100    3.51401    5.88154
      H1    -0.69784    3.96596    6.04901
       H     1.62120    2.58687    3.62529
       O     1.30461    3.35725    3.08391
      H1     1.41507    2.96512    2.18042
       H     2.25488    6.81457    0.89737
       O     2.33245    6.05811    1.50448
      H1     1.84709    6.32574    2.27013
       H     4.92095   13.15527    6.79769
       O     4.12419   13.73738    6.62014
      H1     4.34401   14.10055    5.74549
       H    -0.23957    4.87639    2.45115
       O    -1.03413    5.37772    2.14212
      H1    -1.78969    4.95821    2.57864
       H     9.49683   12.45448    9.30023
       O     8.73091   12.53127    8.73841
      H1     8.16315   12.07670    9.38237
       H     2.78645    5.61938    5.21869
       O     2.19790    6.11966    4.65257
      H1     1.91353    6.91379    5.16109
       H     2.01925   13.89207   11.31750
       O     1.68074   14.43640   10.57847
      H1     1.03007   13.85219   10.17537
       H     7.81771   12.50560    7.03529
       O     7.03449   12.69679    6.54193
      H1     7.15637   12.22874    5.73501
       H     4.72059   10.49401    6.27269
       O     5.07606    9.64986    5.98372
      H1     6.01322    9.65530    6.25098
       H     4.39455    9.21466    4.30487
       O     4.12188    9.30571    3.41401
      H1     4.73588    8.83693    2.87149
       H     0.78864    7.32483    7.53060
       O     0.52412    6.72452    8.22225
      H1    -0.41569    7.08339    8.09719
       H     4.47872    8.35098    7.56204
       O     3.89273    7.80399    8.05580
      H1     4.58723    7.10848    8.17468
       H    -0.17703   15.60937    8.29109
       O    -0.46717   14.70748    8.21710
      H1    -0.05413   14.45361    7.44723
       H     7.74957   11.25434   11.63625
       O     7.46305   12.01302   11.05532
      H1     6.63922   11.56126   10.73902
       H    -3.61265   10.44089    8.94190
       O    -3.97333    9.54281    8.81526
      H1    -4.73294    9.81682    8.21423
       H     3.79926   14.68074    8.28152
       O     4.07918   14.76208    9.22451
      H1     3.22042   14.52780    9.69738
       H    -1.99367    5.08710   12.79315
       O    -1.03275    4.99955   12.55356
      H1    -0.99813    5.59191   11.75690
       H    -2.55520    8.59128    8.12352
       O    -1.88169    7.98552    7.66183
      H1    -1.62882    8.52446    6.88980
       H     0.47498    7.76789   11.61032
       O     0.95231    7.52393   12.41371
      H1     0.20573    7.10522   12.92574
       H     7.81271    8.45214    9.41525
       O     7.64358    9.10656   10.11015
      H1     7.25728    8.56635   10.80370
       H     2.65857    8.37728    6.88397
       O     1.83407    8.54218    6.42127
      H1     2.08728    9.42025    5.97332
       H     7.00491    6.75984    5.68517
       O     6.50465    6.68926    6.47557
      H1     5.91821    5.90948    6.44179
       H     5.20215   10.28574   12.22097
       O     6.08988   10.19129   12.55990
      H1     5.98950   10.72684   13.35440
       H     4.70597    4.00679    5.97386
       O     5.04904    4.49683    5.18291
      H1     5.90494    4.05375    5.18403
       H     7.89517    6.46503    7.95574
       O     7.95686    6.51335    8.93110
      H1     7.05592    6.28422    9.21583
       H     2.14874   10.16097    4.23809
       O     1.91675   10.77562    4.91989
      H1     1.09659   11.14363    4.45912
       H     8.60504    4.63036    5.70787
       O     8.14028    4.14478    4.89337
      H1     7.85731    4.87418    4.33998
       H    -3.58478   11.74439    4.05810
       O    -2.87628   11.32039    3.53980
      H1    -2.45138   10.68043    4.13272
       H     9.67367   10.51799    6.50185
       O     9.06002   10.22995    7.26235
      H1     9.12181   11.03317    7.82959
       H     2.15740    8.89573   10.74166
       O     1.43444    9.38262   10.23577
      H1     1.75268    9.37000    9.33574
       H     6.23181   11.29325    3.33356
       O     7.09528   11.62193    3.60522
      H1     7.58367   10.80522    3.53612

