180
frame 1 | Written by MDAnalysis XYZWriter (release 2.4.3)
       H   -13.67962   -0.08652  -10.61922
       O   -13.98246    0.76812  -10.28684
      H1   -13.62840    1.35330  -11.04077
       H   -16.86257    6.39886   -4.86670
       O   -16.73199    6.51110   -3.90659
      H1   -16.00626    5.92717   -3.94103
       H   -11.53126    8.05552  -10.89564
       O   -11.15146    7.33382  -10.34583
      H1   -10.66359    7.95948   -9.81858
       H   -12.89575    3.56423  -11.31335
       O   -13.11072    2.83545  -12.00126
      H1   -13.78269    3.33820  -12.52489
       H   -17.99235   11.53808   -8.44217
       O   -17.36423   12.02656   -8.97208
      H1   -17.32756   12.86125   -8.56492
       H   -13.48857    4.85799   -8.34723
       O   -14.12542    5.20641   -7.68664
      H1   -14.67947    5.79471   -8.23907
       H   -17.36781    1.37658   -7.62924
       O   -17.95213    1.20498   -8.35414
      H1   -18.37398    0.35026   -8.35449
       H   -14.59396    1.35823   -6.96285
       O   -14.05090    1.86002   -7.56748
      H1   -14.22874    1.34461   -8.36733
       H   -15.44610    3.40354  -13.00558
       O   -15.76354    2.50098  -13.04347
      H1   -16.11451    2.32976  -12.11682
       H   -13.38870    8.37728   -2.49037
       O   -12.40913    8.55259   -2.46907
      H1   -12.08991    8.02090   -3.21440
       H   -11.37982    1.31394   -3.69258
       O   -11.17495    0.69446   -2.93103
      H1   -11.58217   -0.12829   -3.24352
       H   -14.98201    1.66623    0.01696
       O   -15.21135    0.74067   -0.02911
      H1   -16.03406    0.74449    0.49287
       H   -14.92112   -0.01592   -1.87762
       O   -15.01875   -0.36246   -2.81266
      H1   -15.39356   -1.22041   -2.61521
       H   -14.51859    6.85134   -4.79565
       O   -14.25234    5.93612   -4.54536
      H1   -13.99723    5.64675   -5.43196
       H   -18.00239    2.90638  -10.54895
       O   -17.47011    2.15618  -10.85227
      H1   -17.41608    1.71392   -9.95717
       H   -14.71729   10.67239   -8.45329
       O   -14.69275   11.46734   -7.96213
      H1   -15.55521   11.92896   -8.20736
       H   -15.83567    7.55315   -9.09149
       O   -16.06100    6.59998   -9.05124
      H1   -16.92102    6.61338   -9.49035
       H   -15.19114   -0.28161   -4.77751
       O   -15.10031   -0.36430   -5.74082
      H1   -14.17252   -0.71077   -5.91096
       H   -17.27628   -2.13603   -6.34856
       O   -17.92351   -2.33524   -5.65535
      H1   -17.44407   -3.03929   -5.16940
       H   -11.87654    9.60114   -6.45411
       O   -11.72558    8.75942   -5.94362
      H1   -11.00288    9.00560   -5.36087
       H   -15.87066    9.37212   -2.65974
       O   -16.09786    8.56580   -2.18128
      H1   -16.18728    7.85379   -2.87514
       H   -18.78472    5.86410   -6.14198
       O   -19.76805    5.89652   -6.12496
      H1   -19.84980    5.70123   -5.16754
       H   -15.50380   -1.60946  -10.69821
       O   -16.41327   -1.46960  -10.41276
      H1   -16.86456   -2.28511  -10.66483
       H   -16.74693    4.62594   -6.16441
       O   -17.07005    5.45527   -6.56934
      H1   -16.55449    5.39537   -7.41969
       H   -16.66730    8.11397   -7.32767
       O   -16.74917    8.31620   -6.37779
      H1   -17.73369    8.51952   -6.29341
       H   -19.54263   11.76513   -3.58103
       O   -18.88514   11.26677   -4.11199
      H1   -19.26783   11.22507   -5.01628
       H   -16.12788   -1.79598   -8.66958
       O   -16.15539   -2.01251   -7.71807
      H1   -15.79071   -1.23611   -7.37183
       H   -18.96740    6.09124  -10.04230
       O   -18.62589    6.96631   -9.94602
      H1   -19.38817    7.42172   -9.62008
       H   -17.92220    2.57215    1.81691
       O   -18.14386    3.28886    1.20738
      H1   -18.16060    2.94014    0.30349
       H   -13.40813    3.18605   -4.47442
       O   -12.74299    3.02035   -3.83793
      H1   -11.94162    3.38911   -4.16200
       H   -15.03778    8.78978   -0.77590
       O   -14.27873    9.04449   -0.21497
      H1   -14.76257    9.40940    0.53763
       H   -12.79104    8.02106  -11.95573
       O   -13.04583    7.15616  -12.29138
      H1   -12.41620    6.84777  -12.95138
       H   -15.82729    2.83036   -5.58359
       O   -16.65766    2.68348   -5.99541
      H1   -17.15661    2.05989   -5.52461
       H   -19.82486   11.34054   -7.11221
       O   -19.03657   10.80998   -6.96122
      H1   -19.52960   10.01657   -6.96680
       H   -12.54672   -1.99247   -5.81088
       O   -12.59755   -1.50812   -6.68415
      H1   -11.72674   -1.19092   -6.84713
       H   -16.08224    4.20570    0.95629
       O   -15.15415    4.05719    0.89565
      H1   -14.79551    4.93158    0.81982
       H   -10.91741    6.95047   -5.96981
       O   -10.44078    6.20275   -5.57824
      H1   -10.54159    6.36025   -4.63858
       H   -12.57100    1.86056   -1.54719
       O   -12.58189    1.93247   -0.61462
      H1   -11.65612    1.73981   -0.37233
       H   -10.86047    3.10320   -9.06505
       O   -10.41636    3.75177   -9.65176
      H1   -10.66862    3.41752  -10.51673
       H   -11.85843    4.66329   -9.97116
       O   -12.82928    4.80118  -10.02890
      H1   -12.87142    5.70980  -10.31627
       H   -18.03469    8.85143   -0.00871
       O   -18.47495    9.62800    0.35571
      H1   -17.69227   10.02741    0.79150
       H   -11.04764    2.37885   -6.64878
       O   -11.36591    2.03349   -7.52217
      H1   -12.35656    1.97406   -7.41482
       H   -15.98151    1.50746   -3.09682
       O   -16.21070    2.41820   -2.99844
      H1   -17.13464    2.53605   -3.04997
       H   -16.92918    6.40615   -0.54621
       O   -17.11595    7.07924    0.13021
      H1   -17.97779    6.71529    0.42318
       H   -17.65192   -0.79420   -4.92449
       O   -17.65071   -0.11583   -4.22971
      H1   -17.13242   -0.52080   -3.50666
       H   -13.32804    6.20148   -0.05141
       O   -13.57025    6.43302    0.87795
      H1   -13.82659    7.38194    0.73820
       H   -19.42800    2.18127   -4.04393
       O   -19.87155    1.33041   -4.14970
      H1   -19.16711    0.70021   -4.09000
       H   -14.50312   11.12164   -5.87528
       O   -14.57164   11.23480   -4.92985
      H1   -14.55326   10.24956   -4.73365
       H   -18.09346    8.04030   -3.83231
       O   -18.94567    8.45664   -4.23914
      H1   -18.82286    9.42016   -3.87636
       H   -17.59808   10.11808  -11.45168
       O   -16.76680   10.32257  -10.96722
      H1   -17.12905   10.94485  -10.31566
       H   -13.64282    8.52983   -5.57856
       O   -14.40266    8.51054   -5.01895
      H1   -15.10212    8.65160   -5.72154
       H   -18.70425   -1.55738   -9.78469
       O   -19.39042   -1.10349   -9.31564
      H1   -19.73322   -1.76639   -8.67311
       H   -12.62697    3.51436   -1.16606
       O   -12.50493    4.38015   -1.49894
      H1   -12.98004    4.39332   -2.30812
       H   -12.13271   -2.09653   -2.97028
       O   -12.35147   -1.46306   -3.72374
      H1   -13.27371   -1.29055   -3.41314
       H   -15.60292    4.42160   -0.88643
       O   -16.10854    4.87210   -1.59169
      H1   -15.92904    4.12346   -2.16007
       H   -17.79865    0.38219   -0.90308
       O   -18.25839    1.04706   -0.36726
      H1   -19.17566    0.80403   -0.43480
       H   -15.49817    9.46315   -9.86682
       O   -14.86883    9.12925   -9.17806
      H1   -14.01496    8.90759   -9.66166
       H   -11.31904    5.49093   -2.20377
       O   -10.66329    5.92217   -2.84114
      H1   -10.37252    6.70228   -2.28346
       H   -18.89559    3.93609   -2.53241
       O   -18.45217    3.92874   -3.34083
      H1   -18.32884    4.93319   -3.40173
       H    -9.46589    3.26637   -5.44271
       O   -10.40185    3.46067   -5.26621
      H1   -10.40342    4.43745   -5.44316

