180
frame 11 | Written by MDAnalysis XYZWriter (release 2.4.3)
       H   -19.05746  -10.53246   16.79306
       O   -18.35763  -10.05672   16.23273
      H1   -17.52578  -10.55182   16.19566
       H   -17.56622  -16.31076    7.94628
       O   -17.68320  -15.81310    7.13275
      H1   -17.42962  -14.90784    7.46758
       H   -10.43848  -10.30137    9.05161
       O   -10.47529  -10.76102    9.94003
      H1   -10.29176  -10.05609   10.52785
       H   -15.65554  -12.69110    9.18104
       O   -15.06344  -12.21320    9.77979
      H1   -15.55483  -12.29794   10.64884
       H   -13.32384   -2.92301   16.03213
       O   -13.94149   -2.57203   15.33014
      H1   -13.30096   -2.01090   14.81447
       H   -13.08713  -11.13304   12.90189
       O   -13.61951  -10.49090   12.36466
      H1   -14.04490   -9.91213   13.00554
       H    -9.08952  -10.25312   13.85331
       O    -8.86788   -9.69813   13.05396
      H1    -9.74620   -9.48922   12.66705
       H   -20.05204  -19.68619   15.23093
       O   -19.59050  -19.05448   14.68027
      H1   -18.90830  -19.60589   14.15820
       H   -17.15438  -15.32034   16.73390
       O   -17.08214  -14.79469   15.91929
      H1   -16.11526  -14.64138   16.04277
       H   -15.87160  -18.06216   15.47645
       O   -15.67963  -18.27880   16.39801
      H1   -14.91411  -18.83806   16.30358
       H   -15.80766  -13.72936    7.51917
       O   -16.56352  -13.46300    8.05559
      H1   -16.77456  -12.51262    7.78847
       H   -19.34258   -5.28023    6.62725
       O   -19.23745   -6.21375    6.77292
      H1   -18.29947   -6.39733    6.64504
       H   -14.01315  -13.43936   10.13942
       O   -13.59657  -14.35257   10.07916
      H1   -14.01382  -14.73650   10.82878
       H   -18.55041   -6.96518   10.84471
       O   -18.35672   -6.11735   11.26804
      H1   -17.83667   -6.41378   12.01966
       H   -16.44842  -10.45106    6.42382
       O   -17.21255  -11.01954    6.57111
      H1   -17.80120  -10.54290    7.20971
       H   -12.68629   -6.45230   10.44828
       O   -12.28807   -7.20461   10.00894
      H1   -13.10785   -7.68424    9.90643
       H   -14.42334  -18.21985   13.62521
       O   -15.41451  -18.45190   13.60694
      H1   -15.74946  -17.80331   13.02148
       H   -14.08111  -14.90692    8.45864
       O   -14.51464  -15.29007    7.65478
      H1   -14.80113  -16.13937    8.11514
       H   -19.20623   -9.68911    9.00034
       O   -18.97543   -9.41643    8.13939
      H1   -19.63774   -8.71714    7.92494
       H   -18.49710  -11.54642   10.42780
       O   -18.21989  -10.66706   10.52135
      H1   -18.56676  -10.42178   11.45018
       H   -18.63313  -13.72740   15.26437
       O   -19.48234  -13.25412   15.28083
      H1   -20.27947  -13.83698   15.17481
       H   -15.15312  -11.45899   12.37822
       O   -15.89575  -12.06187   12.37477
      H1   -16.55279  -11.51709   12.84530
       H   -17.56470   -5.17217   14.25975
       O   -16.88270   -4.65066   13.81036
      H1   -16.92314   -3.83118   14.30295
       H   -17.12555   -1.35432   15.08334
       O   -16.66879   -2.18439   14.96125
      H1   -15.94024   -2.12651   15.57545
       H   -14.34526   -9.74367   18.52390
       O   -14.17325  -10.64581   18.28415
      H1   -15.06827  -10.83201   18.05365
       H   -14.81717   -4.50594   19.20470
       O   -14.37357   -4.43164   18.34182
      H1   -14.95493   -5.05476   17.79537
       H   -16.52513   -9.57612   10.62182
       O   -15.73561   -9.40681   10.16393
      H1   -15.31166  -10.29571    9.96001
       H   -15.61880   -7.64353    6.97009
       O   -15.95020   -6.72184    6.89240
      H1   -15.66773   -6.30382    7.69638
       H   -17.86118   -7.62843   14.96678
       O   -17.78501   -7.65133   14.03009
      H1   -16.94444   -8.00786   13.79329
       H   -12.23421  -11.13634   15.41307
       O   -13.01095  -10.52499   15.66467
      H1   -13.09917  -10.66659   16.67345
       H   -12.66928   -6.99457   18.43474
       O   -11.87551   -6.56902   18.02096
      H1   -12.06076   -6.97233   17.17818
       H   -17.97762  -18.85396    8.34158
       O   -17.75402  -18.28139    9.15026
      H1   -18.53491  -17.76981    9.35223
       H   -10.61571   -7.61688   13.52164
       O   -10.47409   -6.86866   14.16198
      H1   -10.00485   -7.28908   14.92791
       H   -15.45495  -16.61701   10.95629
       O   -16.00627  -16.42461   11.77571
      H1   -16.81142  -16.31349   11.27031
       H   -19.15412  -14.06726   10.00413
       O   -19.29725  -13.27920    9.43394
      H1   -18.61266  -13.42245    8.85927
       H   -13.04242  -13.35431   13.45430
       O   -12.40677  -12.58075   13.51279
      H1   -11.95350  -12.85031   12.67583
       H   -14.96115  -15.24121   12.45954
       O   -14.34666  -14.53810   12.55769
      H1   -14.85969  -13.72371   12.54351
       H   -14.34885  -10.02629    6.13431
       O   -15.11173   -9.36679    6.08860
      H1   -14.86524   -9.05486    5.19190
       H   -11.24640  -12.88066   17.46976
       O   -11.76075  -13.10991   16.70759
      H1   -11.34686  -13.90538   16.36433
       H   -15.33838   -5.79749   13.98212
       O   -14.62722   -6.36374   13.69852
      H1   -14.35113   -6.77988   14.49715
       H   -18.02755  -15.25003   14.41381
       O   -18.54321  -15.83167   13.80269
      H1   -19.04612  -16.43231   14.37284
       H   -12.15814   -7.52191   14.84641
       O   -12.79390   -7.66996   15.49719
      H1   -12.98776   -8.60444   15.59731
       H   -11.48906   -8.13039   11.23479
       O   -11.19872   -8.64632   12.08335
      H1   -11.90132   -9.36764   12.01524
       H   -14.87177  -16.15859   18.78680
       O   -15.72204  -16.24160   18.38173
      H1   -15.49112  -16.94365   17.73475
       H   -14.80700  -11.04833   15.93136
       O   -15.67679  -11.37741   16.20235
      H1   -15.65656  -12.36973   16.08185
       H   -15.98773   -3.25253   11.62728
       O   -16.42100   -3.65767   10.88877
      H1   -16.90728   -4.37583   11.26564
       H   -14.26447  -14.38564   14.79843
       O   -14.61691  -13.98179   15.64749
      H1   -13.80565  -13.69918   16.11972
       H    -9.57833  -10.97940   15.95798
       O    -9.85825  -11.03636   15.02679
      H1   -10.07647  -11.98813   14.97952
       H   -18.07324   -8.09872   18.65169
       O   -17.45171   -7.60436   19.19946
      H1   -18.05063   -7.10076   19.77341
       H   -16.60542   -1.91319   17.96231
       O   -15.74066   -2.06688   18.39666
      H1   -15.51089   -3.00996   18.16279
       H   -18.40981  -15.49376   11.94291
       O   -18.31964  -15.31113   11.03163
      H1   -18.97330  -16.00744   10.71862
       H   -14.50663   -2.44901   12.92246
       O   -15.23486   -1.88208   12.66589
      H1   -15.69176   -1.73533   13.52528
       H   -12.03883  -13.59656   10.72188
       O   -11.26479  -13.37348   11.31021
      H1   -10.92938  -12.66544   10.71096
       H   -18.82471  -11.71485   14.20870
       O   -18.40305  -11.08113   13.64924
      H1   -18.34901  -10.32298   14.22729
       H   -12.79521   -4.25076   11.52485
       O   -12.94914   -4.67556   10.65370
      H1   -12.06074   -4.52434   10.21259
       H   -14.02502   -4.75505    9.40724
       O   -14.75381   -4.78987    8.72115
      H1   -15.48392   -4.37273    9.18722
       H   -13.27830   -3.68666   14.21518
       O   -13.24026   -3.99320   13.30288
      H1   -13.47585   -4.93048   13.50370
       H   -16.38997   -6.69197   17.58434
       O   -15.65371   -6.31177   17.10454
      H1   -14.96107   -6.97940   17.30631
       H   -19.90420   -4.19686   13.87531
       O   -19.54692   -3.34170   14.22082
      H1   -18.58567   -3.46915   14.05122
       H   -14.99165   -8.07486   12.91355
       O   -15.58699   -8.82901   12.92027
      H1   -15.56131   -8.98500   11.94705

