180
frame 9 | Written by MDAnalysis XYZWriter (release 2.4.3)
       H    -2.90889    4.30209    5.77513
       O    -3.15706    4.79678    5.01154
      H1    -3.83298    5.34741    5.40458
       H    -0.66878   -0.01816    6.63111
       O    -0.61102    0.83313    6.15551
      H1    -0.88618    0.50877    5.29627
       H    -0.12934    3.05528   14.41070
       O    -0.93298    3.25143   14.85914
      H1    -1.03219    4.21706   14.75707
       H    -6.12709    3.72310   10.79103
       O    -6.22694    4.01733   11.71549
      H1    -6.83071    3.34575   12.09254
       H    -1.07314    3.51393    6.00915
       O    -1.82117    3.03836    6.50186
      H1    -1.59254    2.08874    6.35098
       H    -5.37039    5.70289   12.13576
       O    -5.06220    6.62644   12.26696
      H1    -5.89817    7.09897   12.04210
       H    -5.24566   -0.05026    9.32913
       O    -4.93467   -0.95374    9.15371
      H1    -4.88186   -0.84829    8.17890
       H     1.72368    1.21376    7.32394
       O     2.08997    0.99905    8.21645
      H1     2.14830    1.83954    8.69472
       H    -0.99527   10.32369   11.78686
       O    -0.30683   10.08084   11.12749
      H1    -0.03688    9.16884   11.27816
       H    -3.10186   11.74759   11.62342
       O    -2.28128   11.62613   12.13237
      H1    -2.11434   12.57841   12.44173
       H     3.50126    7.49610    9.56380
       O     3.25308    7.73462   10.52273
      H1     3.90638    7.34882   11.06689
       H    -0.83062    3.31963   10.03132
       O    -0.32856    4.08069   10.35502
      H1    -0.90194    4.80446   10.15735
       H    -6.85534    8.94390    7.34909
       O    -6.24623    9.60458    7.00738
      H1    -6.53636   10.30809    7.59668
       H    -1.73785    8.51478    6.52074
       O    -2.18815    8.71970    5.70060
      H1    -1.84942    7.93849    5.20948
       H    -0.85235   10.57448    8.09961
       O    -1.62268   10.73092    8.73047
      H1    -1.22412   10.51142    9.58100
       H     1.36407    3.90222    9.74767
       O     2.18631    3.53968    9.55582
      H1     2.71010    3.68227   10.37835
       H    -4.88713    5.88423   10.17136
       O    -4.67600    5.45411    9.32412
      H1    -4.34295    4.61489    9.70186
       H    -4.53253   12.94461    5.66078
       O    -4.89537   12.08899    5.47862
      H1    -5.27851   11.87178    6.32677
       H    -9.13447   10.47689    9.23094
       O    -8.42628   10.38813    9.97897
      H1    -8.77342    9.70123   10.52123
       H    -2.09572    1.94007   13.25586
       O    -2.26154    1.36828   12.54639
      H1    -3.25108    1.21907   12.52397
       H    -2.95209    2.46480    9.27261
       O    -3.84170    2.63704    9.74504
      H1    -3.54742    2.49304   10.66876
       H    -9.05263    5.15486    9.22851
       O    -8.73469    5.81608    9.85197
      H1    -9.39213    5.75974   10.55978
       H     2.68512    4.99061   12.42896
       O     3.11654    4.27135   11.96336
      H1     3.52458    3.82968   12.75827
       H    -0.77804   10.08030    2.72462
       O    -1.55557   10.55305    3.02935
      H1    -1.40121   10.79841    3.99031
       H    -9.70780    4.08894    7.35022
       O    -9.11953    3.94711    8.13161
      H1    -9.05090    2.94550    8.06171
       H    -7.48253    7.83908   13.17620
       O    -7.80465    7.81649   14.08974
      H1    -7.67863    6.89469   14.38634
       H    -7.43053    4.33770    7.43913
       O    -6.57112    4.25494    6.94393
      H1    -5.97756    4.45915    7.64734
       H    -6.16326    5.77248    4.93787
       O    -5.50203    6.24614    5.42583
      H1    -5.31840    7.04854    4.82845
       H    -3.75124    8.72195    4.94023
       O    -4.67096    8.59851    4.74809
      H1    -5.06176    8.52615    5.62345
       H    -1.51878    5.59037    1.37969
       O    -2.36053    5.78636    1.80282
      H1    -2.04167    6.05642    2.70227
       H     0.36004    8.42076    7.44677
       O     0.26000    9.34379    7.42105
      H1     0.73176    9.47065    6.54869
       H    -6.53381   10.33172    5.42790
       O    -7.15681   10.33071    4.66245
      H1    -6.81623   11.02194    4.02533
       H    -2.90879    8.08507   12.09043
       O    -2.08083    7.73058   12.38473
      H1    -1.75281    7.36976   11.58986
       H    -6.51343   12.92584    8.22731
       O    -6.01919   12.13623    8.08850
      H1    -5.41515   12.28058    8.81776
       H    -4.86545   10.38658   10.89272
       O    -4.89991    9.44752   11.03035
      H1    -4.43104    9.16133   10.26308
       H    -3.79953   12.74476   10.06112
       O    -4.57651   12.25601   10.43905
      H1    -5.07271   12.93859   10.84771
       H    -0.95584    1.15187    8.90754
       O    -1.48133    1.93323    8.86313
      H1    -1.38173    2.38939    7.96130
       H    -1.83237   12.47252    9.04784
       O    -2.31667   13.35275    8.97533
      H1    -1.78630   13.76563    9.71021
       H    -0.41618    6.54749    4.42831
       O    -1.35781    6.71021    4.28610
      H1    -1.86127    5.95407    4.59016
       H    -6.66619    6.56729    7.08384
       O    -7.40416    7.05216    7.45716
      H1    -7.71390    6.59995    8.24058
       H    -0.06367    3.56320    3.86644
       O    -0.06819    4.01211    4.73997
      H1     0.84075    4.27236    4.78918
       H    -4.03051    6.60656   15.38924
       O    -4.84006    6.40693   14.90525
      H1    -4.78694    6.72239   13.99351
       H    -3.65689    2.61019    4.25944
       O    -3.80895    1.66839    3.92646
      H1    -4.80576    1.67725    3.92752
       H     2.11483   12.35215   10.99607
       O     1.18112   12.42566   10.87256
      H1     0.83300   11.58549   11.17666
       H     1.78004    2.49988   13.32327
       O     0.90232    2.65434   12.90326
      H1     1.05178    3.51705   12.42229
       H     0.47144    5.86014    8.47458
       O     0.59185    6.80516    8.33708
      H1     1.51564    6.85486    7.95350
       H     4.04785    7.58746    7.43825
       O     3.28965    6.94203    7.27229
      H1     3.69742    6.17017    6.92486
       H    -3.05969    9.60268    8.40906
       O    -3.79780    8.94893    8.55669
      H1    -4.39247    9.45798    8.00813
       H    -1.43821    6.60972   15.35503
       O    -0.85571    6.34447   14.65000
      H1    -1.33217    6.45171   13.75340
       H    -6.68845    8.34050   11.05383
       O    -7.35958    7.79691   11.46968
      H1    -7.72052    7.24451   10.76336
       H    -1.83041    0.01849   11.26283
       O    -1.14730   -0.57489   10.82928
      H1    -0.41003   -0.50432   11.47785
       H    -3.02913    6.33128    9.01198
       O    -2.11229    6.61326    9.11256
      H1    -2.12085    7.52449    9.01471
       H     1.13010    6.04844   14.30508
       O     1.99548    6.35256   13.92464
      H1     2.62389    6.01281   14.54562
       H   -10.03053    8.24761    5.54908
       O   -10.01554    7.67325    6.29889
      H1    -9.05786    7.47241    6.52202
       H    -2.70309   10.96955   13.94357
       O    -2.51170   11.05628   14.89900
      H1    -1.51265   10.93810   14.98360
       H     2.50449    6.65150    5.36030
       O     1.97433    6.22494    4.70573
      H1     2.52815    6.41462    3.90335
       H    -5.35255    2.31440    9.27186
       O    -6.29599    2.10851    9.03021
      H1    -6.34548    2.61984    8.24203
       H    -2.89915   11.71008    5.53050
       O    -2.00840   11.35022    5.38678
      H1    -2.23577   10.36990    5.51501
       H     1.55621    7.77749   10.72157
       O     0.55310    7.66775   10.82173
      H1     0.25723    7.28966    9.95564
       H    -6.56752    3.13685    5.35363
       O    -6.40736    2.56710    4.62710
      H1    -6.19835    3.20101    3.91798

