180
frame 6 | Written by MDAnalysis XYZWriter (release 2.4.3)
       H   -18.32241  -15.93133    7.54359
       O   -18.99940  -15.55678    6.96199
      H1   -18.64328  -14.65635    6.85657
       H   -16.80547  -15.92979    5.77563
       O   -16.82317  -16.60736    5.04459
      H1   -17.42291  -17.22786    5.47390
       H    -7.49910  -12.83253    2.94669
       O    -8.02410  -13.60924    2.73983
      H1    -7.43982  -14.31279    3.02664
       H   -12.25267  -14.11018    1.23282
       O   -12.67556  -13.67044    1.97867
      H1   -11.90303  -13.19020    2.33467
       H   -13.26390  -17.67413    5.04045
       O   -13.38441  -17.40608    5.96623
      H1   -13.32524  -16.46540    5.89260
       H   -10.52764  -14.38153    4.52091
       O   -10.02280  -13.52884    4.50039
      H1    -9.33213  -13.73920    3.83823
       H   -11.61933  -14.04774    7.14668
       O   -12.11539  -14.85130    7.23809
      H1   -12.97017  -14.49621    7.53860
       H    -7.66295  -17.40510   12.05765
       O    -8.54984  -17.27087   12.49608
      H1    -9.17630  -17.59707   11.89890
       H   -10.21847  -14.02239   -2.59992
       O    -9.76343  -14.87683   -2.54604
      H1    -9.82528  -15.11718   -1.60050
       H    -5.56325  -16.25475    2.77164
       O    -6.27029  -15.96123    3.39605
      H1    -5.85738  -16.21438    4.24788
       H   -14.41171  -18.64732    3.39141
       O   -13.93329  -19.27981    3.95251
      H1   -14.54707  -19.36537    4.68859
       H   -16.42153  -13.63093    7.72041
       O   -17.35690  -13.40830    7.75365
      H1   -17.28094  -12.52966    7.28036
       H   -12.31239  -11.85867    9.89579
       O   -11.71934  -12.53855   10.23673
      H1   -12.18708  -13.38324   10.05712
       H   -17.09436  -10.13570    7.87324
       O   -17.34149  -10.63210    7.10474
      H1   -17.77834   -9.87130    6.57854
       H   -13.33539  -19.26880   13.78902
       O   -14.26320  -19.04794   14.00411
      H1   -14.29756  -18.26493   13.43525
       H   -14.83243  -14.56439    9.13551
       O   -14.73557  -14.54745    8.18086
      H1   -14.70350  -15.52826    8.01344
       H   -12.14495  -15.77414    4.20704
       O   -11.20290  -15.88431    4.53912
      H1   -11.31564  -15.58428    5.46252
       H   -10.18856  -14.93005    9.71897
       O   -10.80766  -15.62210    9.44555
      H1   -11.13143  -15.43094    8.55201
       H    -6.59010  -19.09144    5.23622
       O    -6.63405  -18.36743    5.82427
      H1    -6.63754  -18.80963    6.68748
       H   -15.16094  -17.37299    8.75268
       O   -15.26418  -17.19636    7.83708
      H1   -14.64385  -17.77631    7.39814
       H   -16.12387   -9.99523    5.72043
       O   -15.67521   -9.41876    5.15486
      H1   -15.60895   -9.94731    4.33272
       H   -15.36861  -12.60613   -0.66561
       O   -15.41884  -12.19598   -1.59761
      H1   -16.18864  -12.63201   -1.99965
       H   -11.06721  -17.12333   10.89038
       O   -11.59372  -17.76719   11.41174
      H1   -12.09343  -17.20579   12.00083
       H   -18.32108  -18.96427    2.32764
       O   -19.16305  -18.54918    2.22124
      H1   -18.90267  -17.96979    1.45179
       H   -14.40775  -17.53757   11.50938
       O   -14.32709  -16.92445   12.24638
      H1   -15.25651  -16.65371   12.32480
       H   -18.36981  -15.11745   -3.24054
       O   -18.40742  -16.08641   -3.35078
      H1   -17.86486  -16.46958   -2.68243
       H   -17.13620  -14.39668   11.03072
       O   -16.52794  -13.88774   10.45752
      H1   -17.01784  -13.72964    9.62550
       H   -10.73939  -10.93465    2.29179
       O   -11.09847  -11.46602    3.04571
      H1   -10.47612  -12.15121    3.30382
       H    -4.50038  -15.94410    6.12207
       O    -5.41750  -15.86163    6.28929
      H1    -5.79575  -16.75647    6.28975
       H   -14.06820  -15.14161   11.65330
       O   -13.79770  -14.18966   11.54389
      H1   -14.56936  -13.72676   11.17646
       H    -7.68715  -18.18125    8.79884
       O    -7.64533  -19.05101    8.38440
      H1    -7.25876  -19.61818    9.11563
       H   -17.49866  -11.57794    1.11369
       O   -16.81634  -11.39739    1.77317
      H1   -17.40845  -11.40662    2.57969
       H    -9.72729  -16.35973    2.89799
       O    -9.10975  -16.79431    2.31490
      H1    -8.26776  -16.61166    2.65517
       H   -13.56601  -15.16287    2.73799
       O   -13.89652  -15.56833    3.59177
      H1   -14.37605  -14.79330    3.90440
       H   -14.01994  -13.77243   -3.24978
       O   -13.65671  -14.32944   -2.55452
      H1   -14.06862  -13.89599   -1.78084
       H    -8.99768  -15.92063    9.06673
       O    -8.23022  -16.21780    8.60201
      H1    -8.65817  -16.30390    7.70766
       H   -12.24382  -11.45899    6.18110
       O   -12.47353  -12.18088    5.57251
      H1   -11.60669  -12.34945    5.15533
       H   -15.56136  -15.48765   -1.33865
       O   -15.26608  -15.73785   -0.41837
      H1   -15.64533  -14.99363    0.05405
       H   -18.07940  -18.94504    6.59189
       O   -18.46063  -18.65297    5.71258
      H1   -19.35958  -19.07115    5.74870
       H    -9.13713  -12.69366    7.42311
       O    -9.29356  -13.61270    7.20752
      H1    -9.15120  -13.62139    6.24748
       H   -14.70450  -12.98207    5.45127
       O   -15.39015  -13.62276    5.14162
      H1   -15.99547  -13.00199    4.62213
       H   -15.07114  -17.62981    0.12818
       O   -14.49441  -18.40938   -0.19572
      H1   -14.51023  -18.22108   -1.13611
       H   -19.82867  -18.02694   11.98248
       O   -19.08299  -17.81165   11.35844
      H1   -19.53850  -17.30023   10.71128
       H   -13.23136  -17.00736    0.62554
       O   -12.41643  -16.61359    1.03752
      H1   -11.88882  -17.39916    1.27388
       H   -17.16442  -15.96267   13.01075
       O   -17.03705  -16.04850   12.06575
      H1   -17.60867  -16.82355   11.93247
       H   -11.00662  -15.75415    0.44363
       O   -10.28234  -15.15224    0.23578
      H1    -9.62240  -15.45910    0.87209
       H   -10.61453  -19.34241    0.89245
       O   -10.85812  -18.85554    1.66559
      H1    -9.99820  -18.39664    1.87893
       H   -17.86975  -13.12645    3.61942
       O   -17.94046  -12.26848    4.09672
      H1   -18.78804  -12.33292    4.58835
       H   -13.48315  -11.38064    2.65923
       O   -14.12805  -10.71454    2.98974
      H1   -14.35473  -10.10105    2.28222
       H   -16.88627  -18.62950   -5.48227
       O   -16.48605  -19.19669   -4.81833
      H1   -17.20275  -19.54765   -4.25265
       H   -14.08905  -19.20186   10.12226
       O   -14.08677  -18.26838   10.06816
      H1   -13.18011  -18.04026   10.38200
       H   -13.83262  -17.91035   -3.41948
       O   -14.45722  -18.49602   -2.90603
      H1   -15.10466  -18.66778   -3.60090
       H    -8.44718  -17.67286    6.34318
       O    -9.13885  -17.01618    6.22530
      H1    -9.87600  -17.56296    6.67275
       H   -15.25616  -16.52436    2.76249
       O   -15.94574  -17.02788    2.23463
      H1   -16.63041  -17.23831    2.90268
       H   -14.16955  -13.38362    1.37246
       O   -15.05340  -13.27187    0.84136
      H1   -15.56034  -12.75896    1.48957
       H   -17.31935  -15.31740    2.48457
       O   -17.98721  -14.65636    2.69599
      H1   -18.63088  -15.20553    3.14460
       H   -11.49592  -19.04820    7.67978
       O   -11.15527  -18.86770    6.81276
      H1   -12.00719  -18.48898    6.45507
       H   -19.34571  -17.39866    3.78814
       O   -19.60144  -16.56859    4.24102
      H1   -19.33447  -16.77552    5.13230
       H   -12.96991  -16.03024   -3.12823
       O   -12.48282  -16.79623   -3.50766
      H1   -11.89983  -16.32945   -4.08843
       H    -8.24372  -19.34609   -3.15014
       O    -8.94852  -18.81463   -2.78487
      H1    -9.09252  -18.22191   -3.52233

