180
frame 1 | Written by MDAnalysis XYZWriter (release 2.4.3)
       H    17.67102   -7.00434  -17.11529
       O    16.76778   -7.26227  -17.13117
      H1    16.97975   -7.86562  -17.88705
       H    14.49552   -9.35845  -12.85161
       O    14.34611   -8.86171  -13.67556
      H1    14.70350   -8.03983  -13.32683
       H    14.21728   -0.42204  -19.67678
       O    14.22425    0.08552  -18.83288
      H1    15.00958   -0.11957  -18.28572
       H    10.51554   -7.54193  -17.94655
       O    11.28239   -8.10157  -17.73883
      H1    11.68176   -8.10777  -18.61623
       H    19.29723   -5.54038  -12.77264
       O    18.51071   -5.58476  -12.24982
      H1    18.15419   -4.71154  -12.18165
       H     9.82167   -2.37052  -13.61783
       O     8.91788   -2.27430  -13.32636
      H1     8.46268   -1.78426  -14.04222
       H    11.90977   -1.39514  -13.73122
       O    11.52299   -2.25948  -13.67376
      H1    11.88426   -2.65415  -14.48808
       H    14.45293   -1.77101  -11.11344
       O    14.69739   -0.90348  -10.81800
      H1    14.35815   -0.82773   -9.88851
       H    16.63153   -0.84051  -10.66548
       O    17.49885   -0.65567  -11.03078
      H1    18.11412   -0.84119  -10.30063
       H    11.73197  -13.58518  -15.87605
       O    12.51147  -13.95024  -16.22739
      H1    13.13038  -13.67177  -15.49753
       H     7.55079    0.05332  -15.03598
       O     8.30695   -0.08849  -15.62256
      H1     9.03801    0.40884  -15.16295
       H    13.87456   -3.75095  -10.73972
       O    14.03233   -3.35518  -11.61052
      H1    13.10985   -3.18122  -11.91517
       H    13.60180    4.60557  -17.86146
       O    13.21319    4.12794  -17.14038
      H1    12.97257    3.26884  -17.51213
       H    18.44395  -10.64746  -12.64877
       O    18.44208  -11.57601  -12.50625
      H1    18.59856  -11.77969  -11.58542
       H    12.84320   -8.24737  -16.70326
       O    13.61702   -8.80835  -16.44394
      H1    13.77240   -8.60571  -15.48546
       H    18.18809  -11.81307  -17.07282
       O    18.38569  -12.60534  -17.62529
      H1    17.61874  -13.15410  -17.30095
       H    12.70037   -1.04816  -18.19246
       O    12.34470   -1.81963  -17.73059
      H1    11.42821   -1.45755  -17.47717
       H     9.30617   -8.26104  -14.72993
       O     8.61801   -7.85563  -15.25867
      H1     9.00033   -6.96443  -15.36085
       H    11.17891   -5.43236  -15.73388
       O    10.41036   -5.51584  -15.10609
      H1    10.79706   -5.63210  -14.24273
       H    16.31017   -3.81026  -16.05540
       O    16.51551   -3.04582  -16.68786
      H1    17.40313   -2.82537  -16.38492
       H     8.50690   -9.01692  -16.76604
       O     8.60877   -9.44259  -17.65498
      H1     7.81462   -9.91313  -17.84906
       H    15.60782  -10.07755  -18.44822
       O    16.15912   -9.62233  -19.10547
      H1    17.06589   -9.67344  -18.73808
       H    18.61353   -1.02150  -14.60803
       O    18.72531   -2.01070  -14.57763
      H1    18.06126   -2.19269  -13.89134
       H    17.10948   -2.29118  -12.00233
       O    17.07350   -2.99902  -12.65951
      H1    16.10882   -3.06553  -12.71797
       H    12.73750   -3.52313  -16.82386
       O    12.65859   -4.43867  -16.46124
      H1    13.14117   -4.92379  -17.17294
       H     9.20500   -4.60158  -15.76738
       O     8.71882   -4.02930  -16.46858
      H1     7.89987   -4.60378  -16.64758
       H    15.44384    2.38005  -17.11996
       O    15.92939    1.64582  -16.85359
      H1    15.53215    1.26218  -16.04504
       H    15.75823   -6.27878  -13.82569
       O    16.18210   -6.88347  -13.16200
      H1    17.06332   -6.49018  -13.21683
       H    18.01392   -0.58927  -18.33667
       O    17.07829   -0.41155  -18.34828
      H1    16.94228    0.30572  -17.75045
       H    10.60023  -11.87518  -15.68022
       O    10.19176  -12.28012  -14.90889
      H1     9.42468  -11.71211  -14.74975
       H    12.63991    1.20256  -18.24922
       O    11.96561    1.80657  -17.93795
      H1    12.07995    1.52884  -17.00112
       H    14.32511   -5.10639  -15.53345
       O    15.27534   -5.27644  -15.36570
      H1    15.49957   -5.95392  -16.01620
       H    15.84356  -11.01490  -15.20480
       O    16.71473  -11.18747  -14.72774
      H1    16.51414  -11.09110  -13.79713
       H    11.52466  -10.07945  -17.15091
       O    11.02141  -10.89623  -17.11264
      H1    10.10828  -10.59298  -17.11095
       H     9.50328   -6.16540  -12.33198
       O    10.44302   -5.92195  -12.12495
      H1    10.88278   -6.73927  -11.89220
       H    19.52153   -3.98546  -17.07729
       O    19.59967   -3.00429  -17.00876
      H1    19.41941   -2.82123  -16.06746
       H     8.46149   -6.74890  -17.90830
       O     9.30914   -6.38190  -18.21140
      H1     9.27339   -5.47076  -17.86247
       H    17.78484   -9.50728  -14.37055
       O    18.27372   -9.15541  -13.61714
      H1    17.55385   -8.55001  -13.34357
       H    10.84307    1.11256  -14.55405
       O    10.49189    1.67448  -15.26219
      H1    10.34140    2.51747  -14.78176
       H    13.25916    0.59422  -13.68839
       O    12.82480    0.03253  -14.32023
      H1    13.59196   -0.29656  -14.88480
       H    15.60858   -0.63292  -14.86150
       O    15.02548   -0.80764  -15.60513
      H1    15.55541   -1.41089  -16.16498
       H    19.23309   -9.51816  -17.46879
       O    18.67060   -9.33786  -18.25796
      H1    18.92962   -8.44652  -18.62908
       H     5.90542   -1.37090  -18.65891
       O     5.59112   -2.19960  -18.20219
      H1     6.23277   -2.90554  -18.50974
       H     6.62632   -3.99157  -14.11839
       O     7.22204   -4.52513  -13.57225
      H1     7.92867   -3.83050  -13.48711
       H     6.53548   -7.16547  -16.67923
       O     6.50107   -6.29701  -17.00832
      H1     5.63691   -6.23891  -17.49666
       H    17.73440    2.38727  -15.59482
       O    17.86785    3.29366  -15.23456
      H1    17.57847    3.84274  -15.96480
       H    11.47467   -9.65272  -14.46595
       O    10.88296   -8.98341  -14.16299
      H1    11.37126   -8.52964  -13.46917
       H    18.28836  -14.31149  -13.76319
       O    18.28112  -13.67172  -14.43706
      H1    18.09299  -12.92051  -13.88616
       H    15.97386   -9.88906  -10.95969
       O    15.27334  -10.20214  -11.52017
      H1    14.76855  -10.51687  -10.78711
       H    14.01420  -11.78778  -17.06141
       O    14.98380  -11.75512  -17.28683
      H1    15.01902  -12.55032  -17.87082
       H    15.65153   -7.04947  -11.29340
       O    14.95854   -7.28483  -10.66440
      H1    15.14059   -8.18945  -10.42341
       H    13.17745   -7.48700  -11.22889
       O    12.29732   -7.62936  -11.54704
      H1    12.20543   -8.56753  -11.37923
       H    13.49613   -6.61362  -18.66224
       O    13.92334   -6.22971  -17.87298
      H1    14.32650   -7.02606  -17.47995
       H    15.26254    0.95967  -12.64895
       O    15.83692    0.37372  -13.22330
      H1    16.51784    0.17347  -12.53147
       H    15.34334   -5.64173  -18.75888
       O    15.87590   -5.20202  -19.37657
      H1    15.79297   -5.77047  -20.16670
       H    18.45039    2.04543  -19.89193
       O    18.67684    2.95056  -19.64528
      H1    19.30783    2.75073  -18.89223
       H    15.09322  -15.13748  -18.95680
       O    15.23103  -14.16404  -19.11676
      H1    15.94645  -14.04544  -19.76402
       H    16.83011  -13.47220  -15.50920
       O    15.95442  -13.80717  -15.83785
      H1    15.62230  -12.93670  -16.18694
       H    19.61994    0.22137  -16.33768
       O    18.94716    0.41198  -15.66637
      H1    19.33916    0.75468  -14.87522
       H     9.19810   -1.03026  -16.77752
       O     9.52662   -1.71696  -17.42696
      H1     9.06779   -2.55996  -17.26906

