180
frame 0 | Written by MDAnalysis XYZWriter (release 2.4.3)
       H    15.25458   16.76546   -2.24426
       O    15.67637   17.68221   -2.28722
      H1    16.66957   17.52524   -2.12848
       H    16.15795    9.83342   -6.39106
       O    16.11685   10.08798   -7.34551
      H1    15.29581    9.63068   -7.66311
       H    15.88838   13.05864    4.72267
       O    16.57692   13.34422    4.13991
      H1    17.26124   13.25384    4.78464
       H    11.89285   14.75147    3.46431
       O    10.96432   14.70102    3.29661
      H1    10.63847   15.45945    3.73918
       H    14.65197    9.90626    5.02408
       O    14.96273   10.60526    4.46834
      H1    14.10768   11.04270    4.27406
       H    13.77522   18.51134   -3.17537
       O    12.81109   18.30988   -3.05563
      H1    12.85775   17.77776   -2.26688
       H    16.90624   17.73103   -6.53485
       O    16.84728   18.39960   -7.24556
      H1    17.77743   18.36300   -7.46641
       H    17.44115   11.17071    2.23834
       O    16.70419   10.66185    2.00506
      H1    16.40317   10.40287    2.86332
       H    15.95340   10.15201   -0.75996
       O    16.77938    9.66372   -0.62392
      H1    16.77903    9.76381    0.34651
       H    14.60875   14.46591    1.84506
       O    14.78502   15.19103    2.49914
      H1    15.35801   14.73513    3.09774
       H    11.65111   17.82778    3.05228
       O    10.93509   17.52517    3.63483
      H1    11.30315   17.36999    4.51519
       H    17.40719    7.90823   -0.72917
       O    17.50388    7.09615   -1.19642
      H1    17.50811    6.47243   -0.44907
       H    16.43661    8.82536   -4.22695
       O    16.00010    9.57292   -4.64867
      H1    15.13963    9.72387   -4.19244
       H    15.09268   18.69687   -0.90486
       O    14.72366   19.21879   -0.19130
      H1    15.49890   19.75501    0.07673
       H    13.64032   14.68068   -0.43903
       O    12.76340   14.59871    0.01242
      H1    12.59167   13.65398   -0.06160
       H    12.23591   19.30287    0.97746
       O    12.56251   18.43870    1.39817
      H1    13.41669   18.32801    0.93596
       H    10.80865   12.63747   -0.88045
       O    11.12198   11.89627   -0.33428
      H1    10.58668   12.08432    0.48406
       H    18.01523   18.53884   -0.95954
       O    18.22460   17.72598   -1.48642
      H1    17.96087   17.00285   -0.86869
       H    12.07262   15.93058   -7.88450
       O    12.27421   15.36609   -7.17846
      H1    11.84470   15.84020   -6.42675
       H    11.44549   15.98797    6.63887
       O    11.87046   16.63501    6.03994
      H1    11.73171   17.41069    6.62977
       H    17.94236   14.59063    2.28642
       O    18.56133   15.22656    1.90168
      H1    18.10355   16.03424    2.11043
       H    19.08805   14.39900    7.31177
       O    19.43170   15.26045    7.42946
      H1    19.31641   15.60095    6.52077
       H    13.72676   12.52731    1.92828
       O    14.42515   12.53084    1.22645
      H1    15.07250   12.03004    1.70946
       H    12.81509   10.79240   -4.04615
       O    13.36045   10.12498   -3.51951
      H1    12.87414   10.27306   -2.71347
       H    19.38081   17.44340    5.66637
       O    19.29507   16.75634    4.98903
      H1    18.38265   16.98507    4.67455
       H     9.19817   15.25280    1.04304
       O     8.82852   16.11625    1.20976
      H1     9.56301   16.59754    1.63664
       H    14.44464   12.09924   -0.68477
       O    14.67691   11.60735   -1.46831
      H1    14.07008   10.84921   -1.36760
       H    19.71286   15.29063   -3.48527
       O    18.87800   15.74694   -3.75499
      H1    18.51814   15.93679   -2.87790
       H     9.36256   19.75541   -1.97742
       O     9.31990   19.64709   -1.02741
      H1     9.26133   18.66190   -1.13155
       H    11.13071   14.15090   -3.75060
       O    11.58685   13.27715   -3.95044
      H1    10.90795   12.75771   -4.35418
       H    18.73575   11.04839   -3.87884
       O    19.41212   10.48407   -4.28677
      H1    19.36068   10.83371   -5.18728
       H    16.33957   11.42318   -3.96828
       O    16.60452   12.26635   -3.51679
      H1    15.97056   12.30849   -2.73371
       H    14.30504   17.08806   -9.05642
       O    13.44130   17.19751   -9.44042
      H1    13.46127   18.16422   -9.54753
       H    16.34702   13.10876   -6.88767
       O    17.27391   12.79007   -6.83451
      H1    17.66101   13.68997   -6.54417
       H     8.47073   13.95469   -1.57036
       O     9.36248   14.07070   -1.14511
      H1     9.74272   14.70339   -1.85424
       H    18.50110   13.99256   -1.09295
       O    18.06353   14.81469   -0.81814
      H1    18.32824   14.81911    0.10714
       H    13.96044   17.84029    8.25417
       O    14.59619   17.82449    7.50153
      H1    15.36313   17.50094    7.96888
       H    18.72733   11.99903   -7.01362
       O    19.53641   11.44301   -6.95715
      H1    19.34997   10.58775   -7.38886
       H    16.68756   17.40965    3.16801
       O    16.86240   17.53063    4.14954
      H1    16.06019   17.12634    4.55401
       H    11.48538   11.60734    2.67310
       O    12.28053   11.18691    3.09939
      H1    12.51503   10.55329    2.39438
       H    19.50529   18.58223    7.59159
       O    19.40058   19.02123    6.73980
      H1    18.56946   19.49247    6.98635
       H     9.01863   12.84438    2.05074
       O     9.88682   12.51257    2.10534
      H1    10.24597   13.32130    2.55983
       H    10.61326   16.56176   -5.01355
       O    11.26263   17.12193   -5.33904
      H1    11.70460   17.22536   -4.47117
       H    14.34409   16.40422    6.13601
       O    14.91399   16.00958    5.43161
      H1    14.28496   15.44495    4.89917
       H    17.55402   15.70367   -5.12793
       O    17.09540   15.80820   -5.97253
      H1    16.22058   15.48638   -5.69083
       H    19.79513   11.03378   -1.28170
       O    18.94469   11.47652   -1.29654
      H1    18.23028   10.75768   -1.13839
       H    12.11789    9.19049   -0.74091
       O    13.08531    9.27279   -0.58506
      H1    13.42793    8.49261   -1.04363
       H    15.53595   14.05138   -4.64147
       O    15.08957   14.84288   -4.39365
      H1    14.32748   14.90033   -5.00804
       H    15.81234   14.74618   -1.45163
       O    14.85300   15.06628   -1.65616
      H1    14.83073   14.69073   -2.54082
       H    13.82621   14.04200   -7.47141
       O    14.77896   13.96130   -7.45634
      H1    15.22060   14.72561   -7.86388
       H    15.77101   14.94243    6.97053
       O    15.85782   14.73522    7.88873
      H1    16.28488   15.54988    8.19792
       H    19.44278   12.04862    6.51148
       O    18.68423   12.35175    5.97030
      H1    19.07152   12.29294    5.08399
       H    19.60898   19.60923   -8.36638
       O    19.15484   18.78698   -8.44653
      H1    18.86330   18.87037   -9.32875
       H    13.65606   13.81922    5.68936
       O    13.29252   13.87220    4.73220
      H1    12.68624   13.13192    4.80251
       H    17.62183   12.12320  -10.29465
       O    16.86856   12.59303   -9.75479
      H1    17.05511   12.46365   -8.83282
       H    12.36532   16.19135   -0.34513
       O    12.01222   17.00646   -0.74401
      H1    12.19721   17.65029    0.00676
       H    18.92882   17.67610   -4.36668
       O    19.40257   18.51048   -4.56688
      H1    18.69075   19.12283   -4.83968
       H     9.13389   16.53370   -0.65596
       O     9.42803   17.00772   -1.45971
      H1    10.41910   16.99196   -1.43297
       H    15.66036   16.47199    1.42088
       O    16.30842   17.17084    1.35412
      H1    15.74087   17.90808    1.16513
       H    16.75805   15.92604   -9.25091
       O    15.98148   16.06458   -8.60782
      H1    16.36118   16.82917   -8.11847

