180
frame 12 | Written by MDAnalysis XYZWriter (release 2.4.3)
       H    12.81485  -13.44670    2.96033
       O    12.14721  -13.10785    2.36810
      H1    11.32551  -13.57165    2.54176
       H    16.54237  -14.69378   -0.59934
       O    16.78881  -13.76724   -0.53056
      H1    17.08191  -13.54676   -1.42540
       H    19.09848   -8.47300   -7.23566
       O    18.14590   -8.48419   -7.16593
      H1    17.98894   -8.59367   -6.22480
       H    10.96237  -13.01388   -3.48512
       O    10.15273  -12.58303   -3.68161
      H1    10.31000  -11.83176   -4.29233
       H    17.81727  -13.46686    0.79152
       O    18.54387  -13.33581    1.44367
      H1    18.11706  -13.10078    2.26148
       H    14.28149   -8.63588    2.48617
       O    13.79060   -8.16971    1.80169
      H1    14.45111   -7.62032    1.46748
       H    13.62799   -9.23646   -1.52836
       O    13.27026   -8.72368   -2.34342
      H1    13.58102   -9.24071   -3.04478
       H    11.89256  -15.27257   -6.46990
       O    12.54570  -15.23982   -5.74601
      H1    13.03769  -14.42405   -5.73117
       H    13.78597  -10.16956   -8.01044
       O    13.42370   -9.80831   -7.23887
      H1    14.22952   -9.54490   -6.73597
       H    17.54756  -10.24912    0.01922
       O    16.96659   -9.57945    0.40010
      H1    16.12787   -9.79371   -0.06574
       H    18.33611   -6.81004   -6.08126
       O    18.69793   -6.21056   -5.48704
      H1    17.99374   -5.66373   -5.11416
       H    13.45392  -13.05046    0.58760
       O    13.97348  -12.65887   -0.09380
      H1    14.87466  -13.05068   -0.12058
       H    12.45571   -3.62750   -0.77141
       O    12.01585   -2.79373   -0.88857
      H1    11.23642   -2.75395   -0.33135
       H     8.61603  -13.27348   -4.01613
       O     7.95945  -13.90486   -4.39716
      H1     8.04616  -13.85197   -5.36441
       H    16.42740  -10.74030    1.88329
       O    16.16668  -11.12241    2.75665
      H1    16.08515  -10.31807    3.26150
       H     9.49545   -9.26657   -4.76643
       O    10.04872  -10.07922   -4.76772
      H1    10.46115   -9.90926   -5.65273
       H    13.02942   -8.00420    3.73040
       O    12.46484   -8.29795    4.45156
      H1    13.10656   -8.69367    5.05103
       H    18.69623  -12.88919   -3.39460
       O    18.30662  -12.52770   -2.56731
      H1    17.53864  -12.07869   -2.79949
       H    13.80803  -10.80461   -0.34433
       O    14.15311   -9.89147   -0.22355
      H1    13.85910   -9.62473    0.60042
       H    11.81786  -11.36178    2.80781
       O    11.51626  -10.43833    2.85303
      H1    11.83402   -9.99134    3.64084
       H     8.97647  -10.52008   -1.82405
       O     9.02158  -11.44111   -1.54899
      H1     9.47985  -11.78408   -2.33773
       H    12.45988   -5.95024   -1.67874
       O    13.21817   -5.36280   -1.44430
      H1    13.74881   -5.82060   -0.78548
       H    12.85281  -13.39974   -1.19905
       O    12.19319  -13.75511   -1.87299
      H1    12.04370  -14.67284   -1.60415
       H    12.37319   -3.62556    1.95701
       O    12.27669   -4.58286    2.16657
      H1    12.09621   -4.93100    1.27230
       H    11.96321   -8.16683    1.40180
       O    11.09120   -8.03101    1.13455
      H1    10.70964   -8.95223    0.83065
       H    14.78532  -12.73651   -7.98662
       O    15.58614  -12.36212   -7.70909
      H1    16.20372  -13.08178   -7.83310
       H    14.95533   -7.72907   -2.24616
       O    15.62422   -7.11243   -2.57987
      H1    16.31258   -6.95077   -1.89606
       H    16.49775  -10.15802   -3.47362
       O    16.00062  -10.87854   -3.04616
      H1    15.19203  -11.02055   -3.58971
       H    11.65170   -7.73402   -2.28961
       O    11.06558   -6.95023   -2.25452
      H1    10.74587   -6.78928   -3.14335
       H     9.66469   -3.76573   -7.33193
       O    10.54885   -3.84294   -7.58630
      H1    10.80131   -4.80174   -7.64954
       H    14.81462  -16.09974   -2.69670
       O    14.61453  -15.14480   -2.71529
      H1    13.63022  -15.15472   -2.68981
       H    16.19454   -3.11110    0.14998
       O    15.22937   -3.18220    0.16328
      H1    14.93109   -3.13325   -0.77376
       H    11.88534   -5.39041   -5.53732
       O    11.96463   -6.22311   -5.98803
      H1    12.90988   -6.38077   -6.09540
       H    16.27317  -10.65378   -8.22090
       O    16.16494   -9.71971   -8.51365
      H1    16.90153   -9.15716   -8.13449
       H    15.35755  -15.07068   -6.31850
       O    16.16400  -15.50878   -6.68551
      H1    16.87859  -14.90264   -6.58347
       H    17.15874   -4.08792   -4.34725
       O    16.63089   -4.30390   -5.04790
      H1    15.79582   -4.66067   -4.62966
       H    15.44527   -7.86357   -4.58096
       O    15.53962   -8.23598   -5.47158
      H1    15.25979   -7.58768   -6.09103
       H    10.09040   -6.13616   -0.81670
       O     9.92773   -5.55066   -0.04632
      H1    10.17691   -6.12029    0.68292
       H    11.00240   -7.57201   -8.42524
       O    10.86219   -6.75095   -8.94842
      H1    11.13440   -7.10753   -9.81543
       H    10.87483  -15.36722   -4.60160
       O    10.25647  -15.42302   -3.87375
      H1     9.45065  -14.91202   -4.04092
       H    12.98117   -5.72574   -9.23830
       O    13.83193   -5.20098   -9.23697
      H1    13.52068   -4.24894   -9.15377
       H    16.12814   -6.34657    0.30649
       O    15.14550   -6.16358    0.45250
      H1    15.07192   -5.25434    0.80691
       H    15.11036  -12.92588   -5.59875
       O    14.46041  -13.36047   -5.04233
      H1    14.88309  -13.74518   -4.27164
       H    18.71041   -7.12671   -2.27732
       O    19.34720   -7.08488   -2.98961
      H1    19.00407   -6.68407   -3.76343
       H    13.79126   -5.02643   -3.79792
       O    14.05345   -4.54212   -4.59317
      H1    13.36381   -3.89385   -4.79615
       H     9.46719  -10.92118    0.08149
       O     9.63720  -10.37334    0.85474
      H1    10.33548  -10.69077    1.39870
       H    18.43072  -10.69636   -7.99216
       O    18.68739  -11.47742   -8.43137
      H1    18.63011  -11.32406   -9.39500
       H    18.88865   -9.90494   -4.29569
       O    18.21977   -9.20544   -4.43740
      H1    18.63175   -8.39292   -4.06338
       H     8.67159   -8.69841   -0.15207
       O     8.02582   -8.64095   -0.84921
      H1     7.19123   -8.75033   -0.41067
       H    18.49326   -6.59025   -0.19872
       O    17.75949   -7.09135   -0.51392
      H1    17.74663   -7.98464   -0.15643
       H    11.77252   -9.67490   -7.33231
       O    10.78706   -9.54018   -7.45329
      H1    10.44533  -10.35441   -7.89348
       H    11.75112   -2.53205   -4.82936
       O    12.13024   -2.95709   -5.65470
      H1    11.42713   -3.18282   -6.26879
       H     9.68704  -13.25396   -0.33357
       O     9.23283  -13.93429    0.16166
      H1     9.29117  -14.75580   -0.32680
       H     7.36378   -9.47125   -7.63707
       O     6.75996   -9.32487   -6.82572
      H1     7.25292   -9.13423   -6.02719
       H     8.05609   -8.01809   -3.72902
       O     7.48238   -8.66158   -4.11258
      H1     7.20234   -9.25085   -3.46505
       H    13.07097  -10.60923   -5.27547
       O    13.34801  -11.03332   -4.42255
      H1    13.56522  -11.98261   -4.56933
       H    18.83196  -11.85530   -1.09760
       O    19.15359  -11.24686   -0.35788
      H1    19.21269  -11.89466    0.34341
       H    16.42808   -5.65022   -6.73127
       O    15.81254   -6.22912   -7.19705
      H1    15.49936   -5.62315   -7.90413
       H     9.56314   -6.36056   -5.36846
       O     9.23693   -6.29828   -4.44088
      H1     8.37492   -5.86580   -4.48805
       H     7.48723  -11.22597   -2.20450
       O     6.71058  -10.77488   -2.60621
      H1     6.40241  -11.15937   -3.44741

