180
frame 7 | Written by MDAnalysis XYZWriter (release 2.4.3)
       H     6.30577   -4.22960   -3.30526
       O     5.99119   -5.06000   -2.85351
      H1     5.09331   -4.89702   -3.03715
       H     8.46082    0.95622   -2.63976
       O     8.51967    1.02133   -3.59926
      H1     7.74876    0.43398   -3.88791
       H     1.23189    4.21535   -8.91131
       O     0.66966    4.99033   -8.59686
      H1     0.31094    5.34657   -9.36426
       H     0.05430   -0.22092    0.06064
       O    -0.68651   -0.68166    0.48848
      H1    -1.33764   -0.45156   -0.17683
       H     5.52718    0.03406   -4.43583
       O     6.40545   -0.13773   -4.86460
      H1     6.52624   -1.01918   -4.54185
       H     7.09059    3.12185   -5.63062
       O     7.87934    3.31221   -5.09633
      H1     8.01087    2.46403   -4.64896
       H     5.52057   -2.42678    2.88570
       O     4.81938   -2.77083    2.29242
      H1     5.17201   -2.42968    1.43873
       H     2.62469    2.35610   -9.03104
       O     2.67647    3.20217   -9.46979
      H1     2.11164    3.12520  -10.25788
       H    -1.82678    3.75078   -4.49657
       O    -0.88344    3.85080   -4.83484
      H1    -0.69054    4.78380   -4.84957
       H     0.35387   -3.10198   -7.30935
       O     0.95075   -3.12633   -6.55444
      H1     1.16923   -4.10683   -6.63357
       H    -2.83472    0.72788   -4.25623
       O    -2.44930    0.21072   -3.52665
      H1    -1.60390    0.68902   -3.35466
       H     0.59729   -6.13492   -0.78909
       O     1.23333   -5.45211   -0.84669
      H1     0.61002   -4.71600   -0.76813
       H    -3.19860   -0.15353   -1.81629
       O    -3.20149   -0.55031   -0.94970
      H1    -3.88916    0.00342   -0.52539
       H     3.82654   -3.08855  -10.58947
       O     3.17546   -3.60100  -10.11201
      H1     3.29857   -3.06559   -9.31082
       H    -0.98868    6.69751   -3.74504
       O    -0.12306    6.33699   -3.49257
      H1    -0.41697    5.70342   -2.80271
       H     2.45103   -5.26695   -2.43049
       O     3.19186   -4.74367   -2.73406
      H1     3.22062   -4.04658   -2.07936
       H     1.67914   -2.49795  -12.62653
       O     1.28947   -2.40446  -11.70698
      H1     1.91628   -2.89266  -11.05577
       H     3.64246   -1.52268   -0.90844
       O     3.67340   -2.50275   -1.01367
      H1     4.67710   -2.58791   -1.12136
       H     4.45495   -4.71653   -6.49109
       O     5.23380   -4.10284   -6.42710
      H1     5.55541   -4.22290   -7.36001
       H     2.92907   -5.52923   -4.91642
       O     2.25787   -5.52305   -5.61109
      H1     1.52677   -5.96525   -5.13890
       H     2.55274   -0.27181   -9.43592
       O     1.85780   -0.07786  -10.02922
      H1     1.44096   -0.91889  -10.12115
       H     2.69610   -1.67138   -7.21398
       O     3.38339   -2.11974   -7.76290
      H1     4.11662   -2.21054   -7.12702
       H     6.82020    2.57735   -2.39867
       O     6.49662    3.47315   -2.70970
      H1     6.94447    3.52386   -3.55149
       H     4.12756    6.64714   -4.39923
       O     3.99343    6.21139   -3.52176
      H1     4.85652    6.27585   -3.16378
       H     8.94740    1.05573   -0.45599
       O     8.08194    1.40736   -0.84434
      H1     8.27460    2.30766   -0.47240
       H    -2.80900   -1.66662   -3.95275
       O    -3.00548   -2.57206   -4.18845
      H1    -4.00953   -2.45105   -4.27326
       H     7.31517    6.42505   -1.62045
       O     6.45704    6.10382   -1.92113
      H1     6.67875    5.17312   -2.11332
       H     2.91066    0.21239   -4.58655
       O     3.73528    0.78934   -4.66252
      H1     3.44124    1.59153   -4.16012
       H     6.23768   -1.27091   -8.36979
       O     6.09688   -0.61229   -9.04533
      H1     5.81191   -1.16320   -9.80676
       H    -1.51886   -2.93154   -7.53703
       O    -0.90209   -2.66688   -8.30054
      H1    -0.94239   -1.71298   -8.29688
       H     3.34177    3.71844    1.36301
       O     3.85157    4.48890    1.48171
      H1     3.87505    4.63849    2.40782
       H     2.73258    6.51740   -0.60374
       O     1.99683    6.32191   -0.02623
      H1     2.18342    5.45429    0.34897
       H     4.63853    2.17059   -6.33013
       O     5.17199    3.00510   -6.31834
      H1     4.47756    3.62840   -6.56333
       H    -0.42063    3.46832   -1.19376
       O    -0.45340    4.45560   -1.11448
      H1     0.49520    4.55767   -1.10551
       H    -3.04584    0.75868   -7.14652
       O    -3.18174    0.75172   -6.19429
      H1    -4.12905    0.97108   -6.14033
       H     2.92516    3.31871   -1.92988
       O     2.49401    3.29895   -0.99491
      H1     1.88065    2.53675   -1.05306
       H    -0.24279    0.80067   -7.50853
       O     0.10598    0.05893   -7.97957
      H1     0.51432    0.37633   -8.78290
       H     7.17645   -2.47891   -0.80399
       O     6.50823   -2.93529   -0.28168
      H1     6.59014   -3.84608   -0.54585
       H     6.75355   -2.99979   -5.14192
       O     6.85165   -2.92232   -4.14649
      H1     7.78450   -3.17215   -4.02640
       H    -2.17152   -3.83984   -5.64659
       O    -1.91671   -4.56114   -6.23398
      H1    -1.34026   -5.06347   -5.66323
       H    -0.16422    3.57959   -7.66558
       O    -0.80845    2.95041   -7.37350
      H1    -0.82953    3.25470   -6.41103
       H    -1.85697   -4.45645   -2.91977
       O    -2.60370   -5.02655   -3.18302
      H1    -3.18158   -4.35850   -3.56050
       H     0.89727    7.04550   -4.78942
       O     1.40036    7.61085   -5.38985
      H1     0.70383    7.92673   -6.02777
       H     6.77856   -4.11509   -9.39552
       O     6.93424   -3.38506   -8.82526
      H1     7.47442   -3.82938   -8.11773
       H     6.84215    1.75719  -10.49136
       O     7.44911    1.02253  -10.67694
      H1     7.06701    0.31023  -10.15323
       H     1.10401   -1.34877   -4.49741
       O     1.32975   -0.48886   -4.92443
      H1     1.15247   -0.67655   -5.88116
       H     1.96492   -3.66194   -3.61561
       O     1.05931   -3.35423   -3.66603
      H1     1.00820   -3.34291   -4.66296
       H     3.95401   -1.07137    2.26451
       O     3.47232   -0.23457    1.97476
      H1     2.61683   -0.26344    2.45603
       H     3.72834   -6.40270   -8.54523
       O     4.45302   -5.97417   -9.01367
      H1     4.09165   -5.12872   -9.29513
       H     0.20260    0.92931   -4.37155
       O    -0.00540    1.61298   -3.65239
      H1    -0.06587    2.41219   -4.19707
       H     3.61896    3.98726   -3.62541
       O     3.80993    3.08558   -3.42290
      H1     4.68426    3.16960   -3.08185
       H     3.37069   -0.23599    0.43442
       O     3.11892    0.09329   -0.53921
      H1     3.95533    0.64327   -0.65730
       H     4.75642   -0.00008   -8.52524
       O     3.97886    0.51642   -8.14456
      H1     3.78504   -0.05417   -7.39067
       H    -1.74571    0.54279   -8.65157
       O    -2.69811    0.61292   -8.71612
      H1    -2.75118    1.45488   -9.16412
       H     5.29540    2.57180   -0.19247
       O     5.23656    1.62230   -0.35589
      H1     6.15726    1.25711   -0.18408
       H     5.21872    2.60687   -9.10198
       O     5.65078    2.92142   -9.89130
      H1     4.92863    2.76296  -10.54680
       H     9.09421    0.07916   -7.36716
       O     9.02162   -0.41082   -6.56291
      H1     8.65456    0.17724   -5.86205
       H     0.71016    1.12151   -1.96237
       O     0.77921    1.11090   -1.00787
      H1     1.66208    0.76611   -0.86211
       H     0.41175   -2.91982   -1.54839
       O    -0.31140   -3.03439   -0.91761
      H1    -0.21127   -2.39883   -0.23249
       H     3.31039    6.50930   -6.67657
       O     3.26372    5.68582   -7.16609
      H1     2.29484    5.58387   -7.32227

