180
frame 11 | Written by MDAnalysis XYZWriter (release 2.4.3)
       H    13.27564   18.99652   -2.89136
       O    13.07313   19.79372   -3.42311
      H1    13.23179   19.27980   -4.25860
       H     9.31297    8.17707    1.22212
       O     9.65248    7.74878    2.03190
      H1     9.64637    8.38541    2.75651
       H    16.36132   18.88936   -2.55834
       O    16.10406   19.54665   -1.86348
      H1    15.14843   19.52345   -1.73580
       H     6.37330   17.16853    1.98695
       O     6.05434   16.36289    2.42403
      H1     6.27616   16.50049    3.32164
       H    18.34218   12.76612    4.15877
       O    18.24190   13.62143    4.59401
      H1    17.45589   13.48369    5.19628
       H    12.12032   12.92879   -0.96969
       O    11.55632   13.47392   -0.41903
      H1    11.56522   14.30561   -0.88257
       H    16.02998   12.07094    6.14580
       O    16.23854   13.02717    6.16566
      H1    15.62532   13.46675    5.54865
       H    16.35381   12.25557    0.97672
       O    17.08975   11.76909    0.65329
      H1    17.77047   12.00769    1.27547
       H     9.27612    9.82960    4.24981
       O     9.63372    8.94073    4.30990
      H1     8.85266    8.51674    4.75934
       H    16.16107    9.90119   -0.80241
       O    16.49480    9.22584   -1.42996
      H1    17.19769    9.76019   -1.84469
       H    16.45843   15.07429    1.49686
       O    16.30351   14.83365    2.41463
      H1    17.16542   14.74242    2.82226
       H     9.19919   16.27252    0.60155
       O     8.84484   16.02317   -0.27689
      H1     8.05662   16.57456   -0.37818
       H     9.59858   11.72851    0.30074
       O     8.66976   11.85767    0.12998
      H1     8.48248   12.76039    0.29658
       H     7.22786   19.02649    0.57029
       O     6.35193   18.92532    1.06923
      H1     5.83948   18.50789    0.35156
       H    14.17053   14.51835   -2.70120
       O    13.52743   13.88225   -2.30386
      H1    12.71065   13.90647   -2.80138
       H    14.41676   20.10602    0.43099
       O    13.91257   19.39129    0.04494
      H1    13.47050   18.94469    0.76695
       H    11.31632   11.28576   -2.64864
       O    12.23597   11.01149   -2.88353
      H1    12.73297   10.99419   -2.03769
       H    12.49358   18.95681    4.29485
       O    13.28468   19.24349    4.75968
      H1    12.70801   19.87479    5.28101
       H    13.93592   12.28187    0.43380
       O    14.50932   13.08865    0.71106
      H1    13.88205   13.79762    0.82593
       H    11.81840    8.85854   -3.56955
       O    12.10827    8.02132   -3.24453
      H1    12.32140    8.21778   -2.30300
       H     8.59538   13.39090   -2.36861
       O     8.00567   14.17937   -2.28586
      H1     8.41041   14.48356   -1.49876
       H    13.30235    7.09108    2.47281
       O    14.04124    7.46205    2.99916
      H1    14.46493    7.99726    2.33885
       H    14.38832   12.54535   -2.81919
       O    15.22717   12.02557   -2.88689
      H1    15.03085   11.22019   -3.39853
       H     8.89390   15.26719    2.53641
       O     9.60895   15.81597    2.19195
      H1     9.57478   16.61323    2.73212
       H    11.26328   13.24183   -5.27514
       O    11.98573   13.39684   -4.59549
      H1    11.99000   12.52869   -4.09360
       H    16.27445    9.55145    2.41459
       O    15.48304    9.89463    1.97978
      H1    15.93183   10.59099    1.38983
       H    17.32898   13.21251   -4.50142
       O    17.21791   13.63840   -3.63041
      H1    16.44679   13.08399   -3.36497
       H    11.61504   12.58960    2.23293
       O    11.54799   11.62497    1.98000
      H1    12.29133   11.32981    2.51847
       H    14.90318   10.39537    5.65458
       O    15.42716   10.34204    6.49952
      H1    15.48620    9.35801    6.54568
       H     9.11564   13.57048    7.33336
       O     9.10086   14.51032    7.71022
      H1     8.57942   14.91515    6.99542
       H    15.90256   14.40016   -0.77709
       O    16.64746   14.95626   -0.40067
      H1    17.41681   14.41941   -0.59174
       H     8.96315   11.49123   -1.89081
       O     9.41027   11.65042   -2.72766
      H1     9.05705   11.04360   -3.45152
       H     6.60135   15.10281    5.97106
       O     7.50064   15.44272    5.66043
      H1     7.62339   14.88253    4.89697
       H    10.00647   11.42592    7.48755
       O     9.28161   11.76985    6.91241
      H1     8.76731   10.96350    6.95637
       H    14.17833   17.00974   -2.01545
       O    13.39182   17.54082   -1.84017
      H1    13.61797   18.02249   -1.03258
       H     4.82389   14.02756   -2.94944
       O     5.16222   14.82741   -2.53273
      H1     6.07882   14.43679   -2.45801
       H    18.44515   17.74550    3.32650
       O    18.38473   17.40002    4.21749
      H1    17.48086   17.07088    4.24558
       H    10.50846   18.00098    4.66420
       O    11.16471   17.45731    4.14120
      H1    11.41460   16.74146    4.70953
       H    12.57523   10.69144    0.49411
       O    13.17603   10.90558   -0.26209
      H1    13.46513   10.01648   -0.47072
       H     8.30343   13.09388    3.58840
       O     7.75757   13.90884    3.24657
      H1     6.83690   13.52240    3.33721
       H    11.42817    8.71718    4.44291
       O    12.37155    8.73184    4.76000
      H1    12.90554    8.25644    4.04975
       H     7.26502   11.17024    0.97283
       O     6.39706   10.79143    1.10809
      H1     6.56153   10.12466    1.77256
       H    11.28938   14.88412    2.41035
       O    12.01865   14.24258    2.25353
      H1    11.86411   14.19266    1.25939
       H    13.48843   10.15784    4.39531
       O    14.24450   10.73515    4.20032
      H1    14.68545   10.38023    3.40227
       H    14.40814   17.85634    5.28541
       O    15.09007   17.15651    5.44286
      H1    14.79112   16.52616    4.68457
       H    12.53540    7.43609    0.17461
       O    12.78895    8.06823   -0.49308
      H1    13.60217    7.69489   -0.86147
       H     6.78188   14.67025    1.09267
       O     6.84267   13.88824    0.54768
      H1     6.38508   14.15941   -0.28202
       H    13.04642   14.68778   -5.22290
       O    13.81096   15.19584   -5.47418
      H1    13.49538   15.65532   -6.31166
       H    16.22124   15.75410   -3.27796
       O    15.22386   15.91740   -3.24648
      H1    14.82768   15.60667   -4.14917
       H     8.75462   18.69502    6.53989
       O     9.44601   18.80585    5.90176
      H1     9.87205   19.56050    6.25309
       H    13.80953   16.14704    6.53191
       O    13.19295   15.55455    6.98992
      H1    12.76142   16.17901    7.63387
       H    10.32005   14.51745    6.45268
       O    10.85283   14.55586    5.64715
      H1    11.75557   14.67629    6.00031
       H    13.76412   14.07369    4.28948
       O    14.53299   14.60699    4.45864
      H1    15.18242   14.35204    3.81708
       H    12.01197   16.55235   -1.52509
       O    11.27199   15.94077   -1.68450
      H1    10.59174   16.11456   -1.05132
       H     9.87839   11.59578    3.36562
       O     9.28421   11.68835    4.10174
      H1     9.84289   12.14797    4.75616
       H     8.43922   15.45946   -3.63312
       O     9.13605   15.95484   -4.09896
      H1     9.87054   15.87234   -3.48000
       H    17.13260   17.37537    0.66802
       O    17.78904   17.71689    1.25006
      H1    17.73653   18.63134    0.96781
       H     5.80525   12.13962    2.25970
       O     5.41137   12.56316    3.02758
      H1     5.40036   11.84729    3.65819
       H     6.87967   17.81139   -2.04806
       O     6.47430   17.26233   -1.32006
      H1     5.93653   16.60787   -1.85175
       H    11.37798   17.70719    2.12179
       O    11.55469   18.33257    1.36373
      H1    11.36995   19.17019    1.85545

