180
frame 10 | Written by MDAnalysis XYZWriter (release 2.4.3)
       H   -13.48425    8.32480   15.46151
       O   -13.10657    7.65807   16.09019
      H1   -13.14726    8.06092   16.99763
       H   -16.20430   19.09170   13.73507
       O   -17.10541   18.87464   13.51600
      H1   -17.32583   18.17624   14.13720
       H   -12.69877   11.24008   19.63328
       O   -13.33248   11.26247   18.87874
      H1   -14.11070   11.14479   19.43284
       H    -4.74422   17.31886   19.06453
       O    -5.76152   17.23655   19.05404
      H1    -6.10745   18.13517   18.71707
       H   -14.14687   16.15470   10.22816
       O   -14.94615   16.63237    9.87023
      H1   -14.57434   17.26599    9.20436
       H   -10.04392   16.88930   17.94782
       O   -10.61791   17.55969   18.20960
      H1   -11.34562   17.51015   17.53646
       H   -10.18646   15.44759   14.07487
       O   -10.08336   16.38663   14.39271
      H1   -10.46743   16.97567   13.70163
       H   -18.50444   16.43577   19.15021
       O   -18.98955   17.23229   19.00697
      H1   -19.89605   16.96600   18.66911
       H   -15.45238   16.41533   16.92731
       O   -14.91345   15.75167   16.45675
      H1   -14.59483   15.25853   17.24718
       H   -12.54764   10.34177   14.10247
       O   -11.77895   10.80522   13.72630
      H1   -11.23130   10.88477   14.54456
       H   -17.14631   16.15951   15.45270
       O   -17.65928   16.95934   15.27321
      H1   -17.55186   17.40671   16.11996
       H   -14.61330   16.69940   13.19769
       O   -13.65859   16.86901   13.32142
      H1   -13.47450   16.74665   14.24458
       H   -15.01321    9.57055   14.10829
       O   -14.11950    9.34113   14.19629
      H1   -14.04606    8.68533   13.49208
       H   -16.70182   19.06629   17.33415
       O   -16.81424   18.09701   17.49863
      H1   -17.63162   18.12353   18.01384
       H   -13.95463   19.17216   18.00919
       O   -13.43073   19.89919   17.65026
      H1   -12.82058   19.48269   16.97907
       H   -10.82635   16.12637   10.56503
       O    -9.94593   16.32823   10.20429
      H1   -10.01350   15.59390    9.50165
       H   -11.07278   13.90196    7.98553
       O   -10.40822   14.04402    8.68845
      H1   -10.58298   13.34673    9.35546
       H    -9.72808   13.02029   13.52124
       O    -9.82827   13.56957   14.27678
      H1    -9.51189   13.04713   15.00749
       H   -17.20543   10.60763   14.10511
       O   -16.83795    9.86543   14.60853
      H1   -17.58919    9.27202   14.55432
       H   -13.26502    9.18466   18.94254
       O   -13.14463    8.26263   19.08881
      H1   -13.99910    7.94628   19.30930
       H    -9.47495   10.72517   16.35561
       O    -9.49668   10.46532   15.43842
      H1    -9.08748    9.59826   15.55673
       H    -8.59840   19.28887   15.05885
       O    -8.22933   18.44626   15.35774
      H1    -7.93329   18.56895   16.26653
       H   -17.22662   14.58549   18.53829
       O   -16.98588   15.31871   19.12551
      H1   -16.76079   14.85729   19.97799
       H   -17.60091   16.51082    9.99556
       O   -17.64272   15.79084    9.35239
      H1   -16.73330   15.95968    9.09211
       H    -6.45679   15.20806   10.82070
       O    -5.54757   15.04473   10.61157
      H1    -5.46912   15.54520    9.73092
       H    -6.79424   15.74736   18.27340
       O    -7.77344   15.57049   18.18108
      H1    -7.63790   14.97090   17.39182
       H    -6.29345   14.33960   15.91802
       O    -7.25068   14.15094   15.84072
      H1    -7.54999   14.61949   15.03997
       H   -10.66710   18.55234   11.70168
       O   -10.90356   18.37618   12.61066
      H1   -11.84371   18.03073   12.55298
       H   -11.70969   17.69149    7.99714
       O   -10.71138   17.51092    7.91189
      H1   -10.36450   17.33481    8.81275
       H    -8.31712   10.76206   12.18525
       O    -8.25244   11.72462   12.34456
      H1    -8.03860   12.15045   11.52838
       H   -14.45907   16.67962   19.36651
       O   -14.59476   17.47900   18.89190
      H1   -15.50724   17.36816   18.55240
       H   -13.58418   13.02189   18.44075
       O   -13.68526   13.97115   18.29129
      H1   -13.69151   14.33616   19.18791
       H   -15.41927   18.80240    6.06791
       O   -14.66161   19.37448    6.27624
      H1   -15.07098   20.06907    6.88812
       H    -4.70268   14.28872   16.74221
       O    -4.51696   14.92176   16.03393
      H1    -4.31826   15.75391   16.46288
       H   -12.90015   16.37878   16.10202
       O   -12.19585   17.08049   16.02431
      H1   -11.42029   16.62169   15.62586
       H   -11.57324   12.32182   11.79474
       O   -11.77113   12.86838   11.00544
      H1   -12.34907   12.21802   10.49966
       H   -17.66542   19.42776    7.69090
       O   -17.44744   19.31582    8.64080
      H1   -18.33164   19.76653    8.88326
       H    -6.59512   12.53334   15.05166
       O    -6.39238   11.87505   14.39202
      H1    -6.95713   12.11403   13.65552
       H    -8.04556   15.20423   12.41033
       O    -8.10792   14.83478   11.52177
      H1    -8.87068   15.30552   11.20788
       H    -7.43518   19.53378    8.97656
       O    -8.09986   18.83757    8.83104
      H1    -7.91326   18.34778    9.64377
       H   -12.76625   14.87939   11.09263
       O   -12.65788   15.83445   10.85930
      H1   -12.73778   16.32260   11.70439
       H   -19.36045    8.75679   16.24159
       O   -18.95816    8.69786   17.10600
      H1   -18.43184    9.50288   17.22743
       H   -13.67183   18.28029    7.19693
       O   -13.30060   17.71640    7.94669
      H1   -13.46288   16.75529    7.61165
       H   -17.23884   11.66948   12.34583
       O   -17.79196   11.97106   13.09737
      H1   -18.73598   11.90622   12.83296
       H    -4.14847   13.93816   19.69048
       O    -3.84923   14.29806   18.85368
      H1    -2.91450   14.12968   18.89501
       H    -6.31447   18.15576   15.02409
       O    -5.49374   18.18393   14.49388
      H1    -4.80209   17.87461   15.15659
       H    -6.73373   16.81385   13.87986
       O    -7.45363   16.18986   13.62296
      H1    -8.25488   16.72965   13.91922
       H   -17.59435   18.12639   11.99978
       O   -18.16029   17.74659   11.29851
      H1   -18.01134   18.29778   10.49421
       H   -18.42440   14.61200   10.32740
       O   -18.64140   13.72098   10.69792
      H1   -19.42346   13.54689   10.18363
       H   -17.10371   13.16716   10.31873
       O   -16.33813   13.03202    9.77963
      H1   -15.62305   12.98738   10.44739
       H    -9.75297   11.62204   18.78432
       O    -9.10609   10.93442   18.49755
      H1    -9.74912   10.18540   18.55658
       H   -18.71736   14.50718   12.19690
       O   -18.79776   15.05523   12.99744
      H1   -18.12274   15.75674   12.91593
       H   -17.75525   12.55432   17.08640
       O   -18.03188   13.44251   17.28479
      H1   -18.58035   13.81181   16.50657
       H   -15.68401   14.12644   14.77993
       O   -15.74372   14.23114   13.84319
      H1   -16.54476   13.71048   13.65300
       H    -7.01444   17.17629   12.01292
       O    -6.55903   17.75717   11.38864
      H1    -5.60286   17.74929   11.68429
       H   -10.76151    8.45735   12.69094
       O   -10.33647    9.13848   12.13803
      H1   -10.81315    9.84956   12.63651
       H    -2.66835   17.54955   17.03278
       O    -3.32490   17.63601   16.33346
      H1    -2.76012   18.03364   15.63101
       H   -18.84637    9.98478   19.83393
       O   -19.74087   10.11592   19.48922
      H1   -19.90660    9.66744   18.63585
       H   -13.36556   13.30944   11.67640
       O   -14.27508   13.61040   11.70389
      H1   -14.48080   13.89316   12.58502
       H   -17.03046   10.37098   16.21677
       O   -17.32206   10.83140   17.03175
      H1   -16.65441   10.54862   17.68409

