180
frame 7 | Written by MDAnalysis XYZWriter (release 2.4.3)
       H   -19.43119  -10.56333  -13.85621
       O   -19.06625   -9.79537  -14.40220
      H1   -18.47894   -9.42433  -13.71795
       H   -10.56282   -6.48705  -18.76082
       O   -10.60428   -7.24649  -18.19864
      H1   -10.98808   -7.86652  -18.80449
       H   -14.15612  -14.42938   -8.34222
       O   -14.98463  -14.41001   -7.83946
      H1   -15.20348  -15.35132   -7.75244
       H   -12.02639  -14.62257  -13.68843
       O   -11.49936  -15.05631  -14.40633
      H1   -12.16887  -15.72010  -14.79187
       H   -12.05108   -9.83835  -10.24409
       O   -12.43882   -9.37999  -11.00762
      H1   -12.81825  -10.09111  -11.51896
       H    -8.81670  -11.96580  -13.70948
       O    -8.40830  -11.52664  -14.49570
      H1    -8.31518  -10.69323  -14.04925
       H   -10.38203   -6.29223  -14.24367
       O   -10.70454   -7.10296  -13.86032
      H1   -11.25117   -7.40931  -14.57577
       H   -12.60880  -12.84529   -8.93385
       O   -12.70079  -13.80293   -9.20314
      H1   -11.90215  -14.21309   -8.85657
       H   -11.18456  -10.42127  -19.12748
       O   -12.00702  -10.20225  -19.62136
      H1   -12.64734  -10.17879  -18.88875
       H   -17.04552  -16.45385  -18.76182
       O   -17.39905  -15.62983  -18.32743
      H1   -18.05680  -15.40694  -19.03564
       H   -19.94243  -14.00978  -10.49905
       O   -19.89424  -13.40609   -9.77028
      H1   -18.94270  -13.27586   -9.56018
       H   -17.94336   -7.30327   -8.62560
       O   -18.03520   -7.81239   -9.44170
      H1   -17.22780   -8.31215   -9.40758
       H   -18.66320   -7.73888  -17.31158
       O   -19.45433   -8.09432  -16.87615
      H1   -19.09937   -8.67116  -16.18405
       H    -9.00588  -11.21171  -18.51759
       O    -9.61819  -10.44034  -18.30290
      H1    -8.90904   -9.77936  -18.15334
       H   -12.36883  -15.98769  -17.33584
       O   -11.77843  -16.72428  -17.25643
      H1   -11.82316  -17.16976  -18.11935
       H   -14.76362  -17.31046  -13.93672
       O   -13.80064  -17.43317  -13.82660
      H1   -13.61342  -17.34194  -12.89019
       H    -9.81010   -8.81364  -13.17164
       O    -9.38862   -9.36771  -12.54196
      H1    -9.91750  -10.17392  -12.55666
       H   -16.76568  -13.00170  -13.40748
       O   -16.56005  -13.22140  -12.45639
      H1   -15.60119  -13.39032  -12.50238
       H   -16.98050  -12.65847  -15.55556
       O   -16.25213  -13.16939  -15.18609
      H1   -15.93555  -13.52361  -15.99841
       H   -14.22160  -12.31215  -15.09140
       O   -13.36121  -11.87404  -15.18203
      H1   -13.28771  -11.68690  -14.23683
       H   -10.46545  -12.10549  -11.77622
       O   -10.96326  -11.57595  -12.45765
      H1   -11.22159  -10.76971  -12.02773
       H   -16.34455   -8.54243  -11.86524
       O   -16.58153   -7.60839  -12.13132
      H1   -17.06245   -7.34429  -11.33723
       H   -14.98241   -9.40411   -9.54646
       O   -15.63758   -9.08148   -8.94687
      H1   -15.08732   -8.75072   -8.23534
       H   -12.49348  -10.80004   -8.16247
       O   -12.13037  -11.26112   -8.93908
      H1   -11.23448  -10.98524   -9.00471
       H   -13.96091  -12.20964  -11.50009
       O   -13.83795  -11.56470  -12.29310
      H1   -14.58122  -10.95201  -12.11383
       H    -8.55999  -12.99441  -15.97785
       O    -8.82141  -13.68714  -16.59328
      H1    -9.81150  -13.65866  -16.53220
       H   -19.57814  -15.11150   -7.67719
       O   -19.06743  -14.90056   -6.87269
      H1   -19.00755  -15.85710   -6.52817
       H   -12.30494  -14.03866  -18.09977
       O   -12.91496  -14.50440  -18.66472
      H1   -13.42422  -13.74899  -19.03681
       H   -19.04897   -9.59954   -9.84135
       O   -18.95294  -10.45094  -10.30925
      H1   -19.28993  -11.09177   -9.65391
       H   -14.66429  -17.21115  -16.56319
       O   -14.55275  -18.16105  -16.64251
      H1   -13.56654  -18.24179  -16.62288
       H   -17.93512  -14.51359   -8.01677
       O   -17.47445  -14.22911   -8.88122
      H1   -16.61175  -14.23939   -8.49840
       H   -10.04835  -11.06574  -15.15959
       O   -10.67431  -10.76376  -15.82269
      H1   -10.16992  -10.66431  -16.64127
       H   -12.36861  -14.23920  -11.11600
       O   -12.65107  -14.52265  -11.97265
      H1   -12.35861  -15.48665  -12.00468
       H   -15.73848  -18.57257  -15.22337
       O   -16.52172  -18.54975  -14.62023
      H1   -16.47351  -19.42056  -14.20284
       H   -19.68673  -17.23212   -8.90036
       O   -18.76977  -17.71867   -8.82955
      H1   -18.99485  -18.34853   -8.15512
       H   -17.13407  -16.21265  -14.38933
       O   -16.30022  -15.68373  -14.27697
      H1   -16.57402  -14.84760  -14.61952
       H   -11.74796  -19.12239  -14.12337
       O   -10.87684  -19.29672  -13.80936
      H1   -10.50209  -18.36409  -13.78099
       H   -15.09780   -8.10277  -18.57574
       O   -15.24194   -8.30710  -19.54123
      H1   -16.04217   -7.74225  -19.65417
       H   -13.15450   -9.37563  -16.84358
       O   -13.59468  -10.07743  -17.36352
      H1   -13.70685  -10.77627  -16.66728
       H   -18.21991  -19.77490  -11.46784
       O   -17.64762  -19.30462  -10.89717
      H1   -18.25613  -19.00855  -10.24747
       H   -16.86132  -10.89766  -12.41450
       O   -16.57613  -10.25435  -11.76855
      H1   -17.27750  -10.49189  -11.11637
       H   -18.22386  -11.85687  -17.72680
       O   -17.66764  -11.67600  -18.51570
      H1   -18.04429  -12.18750  -19.22282
       H   -15.55908   -9.53580  -16.23104
       O   -16.18220   -8.82267  -16.12921
      H1   -15.65417   -8.06559  -15.82639
       H   -18.13571   -7.55367  -19.64276
       O   -17.70362   -6.87236  -19.08690
      H1   -18.39279   -6.17543  -19.19071
       H   -17.03767  -15.13516  -12.09748
       O   -17.31526  -15.66077  -11.35852
      H1   -17.48040  -14.98873  -10.65247
       H   -18.06149  -17.16019  -16.59572
       O   -18.63493  -17.33499  -15.82505
      H1   -17.95982  -17.72785  -15.22868
       H   -16.10606   -6.14102  -15.03925
       O   -15.18032   -6.34543  -14.99882
      H1   -15.23724   -7.04577  -14.35979
       H   -13.39636  -17.02999  -10.89375
       O   -12.51323  -17.21344  -11.26212
      H1   -12.49494  -18.19945  -11.14993
       H   -11.68701  -12.51944  -16.44172
       O   -11.46175  -13.42921  -16.64886
      H1   -11.53756  -13.68696  -15.72009
       H   -18.67435   -5.78683  -15.51728
       O   -17.78053   -5.81428  -15.77795
      H1   -17.56289   -4.93232  -16.09211
       H   -20.04095  -11.38859   -6.93088
       O   -19.77511  -10.79399   -7.63343
      H1   -18.94902  -10.34060   -7.30596
       H   -15.65712  -18.06886  -10.65736
       O   -15.30766  -17.15971  -10.54823
      H1   -16.00799  -16.61237  -10.91481
       H   -12.73322   -5.32116  -17.23299
       O   -13.53382   -4.99011  -16.88814
      H1   -13.83621   -5.42054  -16.09122
       H   -15.67428  -15.05937  -17.66027
       O   -14.91172  -15.15800  -17.06287
      H1   -14.19516  -15.06981  -17.74229
       H   -15.48921  -17.66809   -7.60656
       O   -16.12931  -17.02707   -7.35773
      H1   -16.70029  -17.04238   -8.16749
       H   -15.55160   -6.26106  -11.86736
       O   -14.97328   -5.53149  -11.68098
      H1   -15.52870   -4.75478  -11.72027
       H   -15.54783  -18.57569  -18.32982
       O   -16.34065  -18.29672  -18.82130
      H1   -15.87529  -18.10887  -19.64407
       H    -9.07222  -16.93379  -14.57438
       O    -9.47916  -17.02369  -13.69609
      H1   -10.09918  -16.37204  -13.62407
       H   -18.79780  -11.26329  -15.34018
       O   -18.54444  -12.01885  -15.95385
      H1   -19.40842  -12.37696  -16.18121
       H   -11.42297   -8.98019  -15.83871
       O   -12.04928   -8.22845  -16.12717
      H1   -11.45832   -7.82244  -16.75523

