180
frame 5 | Written by MDAnalysis XYZWriter (release 2.4.3)
       H   -19.14563    1.19182   -4.13776
       O   -18.31628    1.65373   -4.24226
      H1   -17.72422    0.99088   -3.92811
       H   -15.59050   12.22934    2.50012
       O   -16.30033   12.63045    2.96547
      H1   -16.53094   13.40279    2.37749
       H   -12.07295   10.56611    3.74006
       O   -12.59676   11.36163    3.60217
      H1   -13.03589   11.28629    2.72906
       H   -17.38038   11.60585   -9.86283
       O   -17.01373   10.94073   -9.27734
      H1   -17.59121   10.96676   -8.47181
       H   -17.56461   11.75105    1.41614
       O   -18.13266   11.51827    0.65253
      H1   -17.70506   11.96775   -0.09449
       H   -16.82009   12.34902   -4.49472
       O   -17.66244   11.85953   -4.28169
      H1   -17.54623   10.88651   -4.19003
       H   -18.93403   11.09601    6.30202
       O   -19.34413   11.15127    7.19824
      H1   -19.15036   11.99227    7.61274
       H   -12.85569    3.59415   -0.93090
       O   -12.58334    4.10938   -1.69502
      H1   -12.99538    4.96511   -1.52790
       H   -19.96252    5.61917    2.28657
       O   -19.04898    5.81239    2.44156
      H1   -18.56066    5.74322    1.58519
       H   -11.97245    9.03404   -0.48439
       O   -11.10754    9.12297   -0.88569
      H1   -10.66029    8.24971   -0.67660
       H   -20.15042   16.28201   -3.27509
       O   -19.43267   15.69082   -3.48785
      H1   -18.81910   15.68557   -2.75932
       H   -12.93861    7.47324   -1.97588
       O   -12.54806    6.65551   -2.42170
      H1   -11.61322    6.71467   -2.08505
       H   -17.12951    9.63415    8.90974
       O   -17.62581    9.31418    8.15547
      H1   -17.92853   10.13924    7.75520
       H   -19.32429    1.22151    4.31626
       O   -18.38521    1.41102    4.11607
      H1   -18.34616    2.34988    4.26495
       H   -13.91384   16.04524   -1.14577
       O   -14.56516   15.30040   -1.16608
      H1   -14.97261   15.25511   -2.06023
       H   -15.13157    3.23028    3.72098
       O   -14.58454    2.86337    4.46582
      H1   -15.02225    3.13547    5.29501
       H   -18.55128   17.16833    1.84317
       O   -18.41797   18.05520    1.62092
      H1   -19.27849   18.45706    1.83997
       H   -11.88129   10.20452   -5.61251
       O   -12.36237    9.64619   -6.19685
      H1   -12.97810   10.27503   -6.62637
       H   -15.48702   16.59661   -4.24752
       O   -15.58947   15.68192   -3.99845
      H1   -14.96092   15.27260   -4.64907
       H   -16.44584   14.70085    0.57902
       O   -16.78731   14.78879    1.45657
      H1   -17.72338   14.64391    1.26923
       H   -13.55639   12.20860    0.87921
       O   -14.03830   11.49906    1.32673
      H1   -14.08375   10.67136    0.85007
       H   -15.25423   12.40659   -1.59364
       O   -14.35943   12.14689   -1.86061
      H1   -13.80567   12.44899   -1.09420
       H   -15.48389    3.30462   -3.07512
       O   -14.63771    2.92759   -3.10137
      H1   -14.07630    3.52238   -2.57121
       H   -17.01110    8.51270   -4.23552
       O   -16.84856    9.12036   -3.48550
      H1   -17.60280    8.88871   -2.88622
       H   -14.90756    6.81871   -7.43924
       O   -15.71356    7.41094   -7.42184
      H1   -16.24723    6.90268   -8.08538
       H   -13.03870    6.52310   -6.57417
       O   -13.30677    6.22877   -7.46203
      H1   -12.62249    6.75975   -7.93936
       H   -14.22341   10.34182   -2.39200
       O   -14.26001    9.45652   -2.71357
      H1   -15.21288    9.38230   -3.05051
       H   -15.47868    3.82475   -5.76332
       O   -14.89442    3.70562   -6.52948
      H1   -14.35308    4.46023   -6.69477
       H   -18.32975    7.36308   -5.75525
       O   -17.47775    7.19865   -5.28394
      H1   -16.82304    7.25004   -5.97332
       H   -18.60299    7.07747    3.84449
       O   -18.73469    7.42732    4.75621
      H1   -17.83119    7.69605    4.99385
       H   -11.85004   12.18482   -3.35228
       O   -12.13836   13.05381   -3.15377
      H1   -12.97821   12.83264   -2.78089
       H   -15.07979    3.62125    1.70109
       O   -15.96663    3.52197    2.07379
      H1   -16.41958    2.76061    1.64227
       H   -14.51101    8.49157    0.22638
       O   -13.80350    8.85388   -0.23331
      H1   -14.11365    8.97115   -1.15917
       H   -13.02934    4.78925    3.29447
       O   -13.55818    5.01398    2.54728
      H1   -12.98435    5.08490    1.82335
       H   -19.76211    5.38679   -2.25120
       O   -18.82096    5.19274   -2.01114
      H1   -18.43753    4.80733   -2.76203
       H   -17.80705   11.45223    4.16146
       O   -18.40246   10.89313    4.67677
      H1   -18.77098   10.18026    4.15175
       H   -17.36090   13.51306   -1.61161
       O   -17.01408   12.60717   -1.77905
      H1   -17.42990   12.31480   -2.66324
       H   -16.87070    6.27223  -10.30374
       O   -17.15804    6.12588   -9.37776
      H1   -18.08723    6.17311   -9.35251
       H   -18.40437   16.14899   -5.35576
       O   -17.87301   16.09139   -6.20847
      H1   -16.90660   16.03115   -5.97623
       H   -18.41052    4.80605    3.83981
       O   -17.84132    4.25357    4.48166
      H1   -17.14003    3.92981    3.91399
       H   -17.05923    7.30527    7.56626
       O   -17.07594    6.40924    7.39841
      H1   -18.04426    6.33048    7.32822
       H   -14.19219    1.50475   -0.32629
       O   -13.93294    2.17175    0.35058
      H1   -13.13857    1.79324    0.72314
       H   -11.80049   13.56727   -0.22232
       O   -12.72153   13.45550    0.01012
      H1   -13.29477   14.08185   -0.44268
       H   -14.79703   11.43412   -6.39409
       O   -15.08438   12.05659   -5.66966
      H1   -14.28162   12.41141   -5.27079
       H   -14.67544    6.49284    2.18534
       O   -15.15190    7.38526    2.14241
      H1   -15.83260    7.06882    1.53958
       H   -15.06731    8.01853    5.05528
       O   -15.67380    8.55383    4.48624
      H1   -15.54556    8.05516    3.66095
       H   -15.17745   10.19772    5.21412
       O   -14.52778   10.83343    5.52041
      H1   -13.95502   11.04741    4.75999
       H   -17.20009    5.46865   -4.56457
       O   -17.14903    4.58810   -4.18958
      H1   -17.80324    3.99214   -4.59735
       H   -16.86919    0.62698    0.30968
       O   -16.74327    1.58174    0.19564
      H1   -15.83226    1.86927    0.24223
       H   -19.53742    3.77174   -0.65972
       O   -19.67525    3.11637    0.02121
      H1   -19.20576    2.32281   -0.32504
       H   -15.48114    1.28290   -3.58707
       O   -16.02099    0.48889   -3.53445
      H1   -15.72859   -0.06063   -4.31364
       H   -19.59124    8.75510   -7.46487
       O   -19.34511    7.83066   -7.29559
      H1   -19.60747    7.46977   -8.13952
       H   -19.53670    8.67333   -1.01757
       O   -19.22400    8.40505   -1.88797
      H1   -19.70232    7.56354   -2.09720
       H    -9.79625   10.06335   -3.96459
       O   -10.69356   10.29213   -3.79777
      H1   -10.81787    9.90286   -2.88788
       H   -17.46916   15.94502   -1.01817
       O   -17.84626   15.09446   -1.27890
      H1   -18.68292   15.01976   -0.81183
       H   -17.67861    8.41440   -0.83951
       O   -16.86736    8.80002   -0.40008
      H1   -17.15199    9.61559   -0.02107
       H   -16.94446    4.87750    0.92164
       O   -17.12143    5.69007    0.41755
      H1   -17.68563    5.46253   -0.35677
       H   -13.17335    8.21701   -5.11022
       O   -13.15891    7.27487   -4.97367
      H1   -13.01190    7.14335   -3.98831
       H   -15.03505    9.30343   -7.50830
       O   -14.78554   10.25914   -7.55258
      H1   -15.50030   10.66138   -8.02855
       H   -15.12076   14.95263   -7.86575
       O   -15.81925   14.55272   -7.43082
      H1   -15.43120   13.86365   -6.86050

