180
frame 12 | Written by MDAnalysis XYZWriter (release 2.4.3)
       H    -9.14100    9.73159  -11.17603
       O   -10.00877    9.36340  -11.54373
      H1   -10.21533    9.88794  -12.31211
       H   -14.30077    9.00079  -11.21254
       O   -14.54095    8.51349  -10.44259
      H1   -14.34911    7.57195  -10.69037
       H   -10.36584    6.91998  -10.82596
       O   -10.56743    6.00037  -11.19334
      H1   -11.01632    6.34782  -11.99445
       H   -18.04901   11.26758   -5.20057
       O   -17.66676   11.86900   -5.81386
      H1   -18.25085   12.63069   -5.68808
       H   -13.15285    5.46787  -10.29720
       O   -13.90641    5.89741  -10.70372
      H1   -14.59160    5.26751  -10.65944
       H   -18.58277   14.83948   -5.03014
       O   -19.14665   14.18747   -4.61707
      H1   -18.70510   14.41144   -3.75660
       H   -12.72525    9.99801  -11.74738
       O   -13.25448    9.64333  -12.46892
      H1   -12.89333    8.79206  -12.65195
       H   -18.08411   16.33134   -9.38576
       O   -18.61169   17.05924   -9.71257
      H1   -18.26708   17.27272  -10.58675
       H   -15.08910   15.24052  -12.52624
       O   -14.38116   15.66265  -11.92574
      H1   -14.93611   16.34763  -11.49014
       H   -13.17046   12.46080  -10.67397
       O   -12.24060   12.42106  -10.40488
      H1   -11.83375   12.98185  -11.09362
       H   -16.26105   18.07397   -9.96529
       O   -15.56303   17.38288   -9.89109
      H1   -15.96421   16.66680   -9.37876
       H   -13.81827   18.03740  -10.67038
       O   -12.97906   18.37832  -10.91596
      H1   -13.19612   18.89003  -11.68670
       H   -12.35094    6.23703   -6.18860
       O   -11.55684    5.90678   -6.59346
      H1   -11.77451    5.95726   -7.56843
       H   -14.52625    5.81228  -13.63316
       O   -13.70317    5.33539  -13.83749
      H1   -13.68682    5.38256  -14.84420
       H   -15.67563   12.19387   -4.31695
       O   -15.41159   13.04490   -3.88855
      H1   -15.84379   12.89501   -3.01831
       H   -15.10903   14.35073   -5.30775
       O   -15.06844   15.29116   -5.79314
      H1   -15.94021   15.56523   -5.41102
       H    -9.88045    9.96868   -7.58110
       O    -9.49673   10.07314   -6.66602
      H1    -9.39337    9.13947   -6.46308
       H   -17.74858   16.91843   -5.73417
       O   -17.34796   16.27631   -5.10676
      H1   -17.31469   16.88796   -4.29461
       H   -13.94471    8.06863   -7.28629
       O   -14.44450    7.35501   -7.76460
      H1   -14.69850    7.67525   -8.63240
       H   -11.22088   10.72522   -5.86458
       O   -12.14020   11.04858   -5.78150
      H1   -12.52708   10.80190   -6.64740
       H    -8.92871   10.92487  -14.12774
       O    -9.87178   11.08169  -13.95310
      H1    -9.95458   12.01852  -14.15284
       H   -14.16913    9.70704   -2.78984
       O   -14.73193    8.89769   -2.71212
      H1   -14.37474    8.42900   -1.89394
       H   -15.49461   11.77068  -15.14157
       O   -16.37594   11.99164  -14.82308
      H1   -16.45586   11.24218  -14.22169
       H   -18.51228    7.50744   -8.81230
       O   -19.45479    7.14211   -8.57694
      H1   -19.25632    6.49823   -7.84146
       H   -16.42443    5.28874   -6.90620
       O   -16.84672    6.15744   -6.96671
      H1   -15.99164    6.64351   -7.02235
       H    -9.13874   15.17497   -7.47273
       O    -8.96207   14.33977   -6.99169
      H1    -9.79929   14.30676   -6.42657
       H   -13.90575   10.60824   -5.23611
       O   -14.89116   10.54543   -5.40170
      H1   -14.97946   10.50831   -6.41957
       H   -11.46066   10.81520   -9.64303
       O   -11.07939   10.01924   -9.22824
      H1   -10.48663    9.60864   -9.90275
       H    -8.67601   14.10833  -11.64195
       O    -9.31358   13.37375  -11.59666
      H1    -8.78511   12.63703  -11.93298
       H    -9.01751   17.27952   -8.57369
       O    -8.86146   16.42541   -8.98563
      H1    -9.72653   16.27373   -9.37699
       H   -18.82173    8.29389  -12.39349
       O   -19.29253    9.09171  -12.68330
      H1   -19.70550    9.46191  -11.88067
       H   -13.77985   15.47995   -4.54881
       O   -13.15580   15.33935   -3.83947
      H1   -12.59188   16.14232   -3.84516
       H   -16.00164    8.46788  -12.85608
       O   -16.05342    7.62050  -13.30889
      H1   -16.89574    7.28429  -13.03710
       H   -11.59093   15.38882  -11.63927
       O   -12.03537   14.78259  -12.24447
      H1   -12.94686   15.02130  -11.95714
       H   -13.30116   12.30195  -14.56835
       O   -13.20540   13.32020  -14.83202
      H1   -12.96636   13.60477  -13.94086
       H   -13.66425   10.19807  -14.08609
       O   -13.82893   10.49685  -15.05172
      H1   -13.11620   10.00912  -15.47649
       H   -10.19158    6.99400   -6.33000
       O    -9.33565    7.35276   -6.36869
      H1    -8.94418    6.79235   -5.62742
       H   -11.83248   16.26686   -9.72972
       O   -11.15978   16.46956  -10.36756
      H1   -11.66881   17.05435  -11.00961
       H    -9.07454   12.99315   -9.97901
       O    -8.64028   12.61827   -9.13397
      H1    -9.03100   13.21593   -8.47504
       H   -11.30040    7.50537  -13.64619
       O   -12.09113    7.29789  -13.10497
      H1   -12.53265    6.48899  -13.45711
       H    -9.17328   11.00043   -5.13563
       O    -9.37898   11.73642   -4.52773
      H1    -9.71952   11.19127   -3.73395
       H   -18.27498    5.48194  -12.84113
       O   -18.46370    6.34760  -12.58517
      H1   -19.28537    6.29219  -12.08349
       H   -19.35730   11.47536  -14.96956
       O   -19.19651   11.60093  -14.01416
      H1   -19.35037   10.71563  -13.66914
       H   -11.34879    7.81975   -8.60410
       O   -11.83630    7.17000   -9.09103
      H1   -12.68866    7.57397   -9.25271
       H   -16.22461   12.25243   -8.03076
       O   -15.61740   12.87615   -8.55098
      H1   -15.01960   13.16683   -7.89343
       H   -13.76038   11.93876   -2.77657
       O   -13.15965   11.16445   -2.97382
      H1   -12.64044   11.45420   -3.76432
       H   -12.58716   13.80738   -7.00106
       O   -13.04203   13.79437   -7.86605
      H1   -12.50577   13.12787   -8.37349
       H   -16.52719   14.47798   -8.21315
       O   -16.52113   15.44629   -8.24785
      H1   -16.21907   15.61535   -7.32650
       H   -18.39219   11.23773   -8.76514
       O   -17.68882   10.76702   -8.23016
      H1   -17.87736   11.17859   -7.32191
       H   -15.25889   12.81436  -10.29314
       O   -14.94599   12.66126  -11.21502
      H1   -15.31706   13.38840  -11.70445
       H   -16.88394   14.92680  -13.50595
       O   -16.39169   14.17053  -13.15598
      H1   -16.29249   13.48219  -13.89321
       H   -13.47334    7.73875   -4.45483
       O   -12.73678    7.11548   -4.43955
      H1   -13.15413    6.39959   -3.93733
       H   -14.67388   11.03447   -8.94899
       O   -14.04861   10.39872   -8.55227
      H1   -13.77857    9.74625   -9.24398
       H   -13.58813   15.74478   -8.68940
       O   -13.30847   16.49010   -8.12429
      H1   -13.81858   16.42086   -7.30461
       H   -15.88309   11.31566  -11.63204
       O   -16.17990   10.53532  -12.18926
      H1   -17.08870   10.37287  -11.83396
       H   -19.25768   12.65243  -12.66785
       O   -18.92467   13.34005  -12.08830
      H1   -18.12263   13.62560  -12.60388
       H   -16.53944    8.28525  -10.17930
       O   -17.41958    8.64840   -9.91882
      H1   -17.20299    9.40875   -9.38554
       H    -7.02146    9.74407   -7.87683
       O    -6.73059   10.58122   -8.39919
      H1    -7.51157   11.13103   -8.54733
       H   -19.58188    6.49971   -5.08236
       O   -19.25504    5.71132   -5.58971
      H1   -18.37200    6.09814   -5.93495
       H   -11.93532   14.12043   -4.86883
       O   -11.41279   13.85720   -5.68690
      H1   -11.32259   12.89787   -5.59517

