180
frame 11 | Written by MDAnalysis XYZWriter (release 2.4.3)
       H     4.94356   16.87699   18.51094
       O     5.83093   16.52853   18.33431
      H1     5.98159   16.31490   17.40233
       H    13.54104    9.37615   16.71347
       O    13.86557   10.24015   16.92596
      H1    14.83030   10.13097   16.98741
       H    11.13999   12.77879   11.10453
       O    10.65793   13.38853   10.48463
      H1     9.66666   13.21103   10.61928
       H    11.94524   13.25710   17.76607
       O    12.80944   13.56911   17.98001
      H1    12.73193   14.51982   18.05196
       H     7.68396   11.10252   15.83263
       O     7.98638   11.81668   16.42713
      H1     7.43973   11.57971   17.19445
       H     5.55397   18.18844   14.02928
       O     5.43446   17.85193   14.93238
      H1     6.19097   18.38565   15.32635
       H     3.89619   13.14714   17.25107
       O     4.48787   12.44379   17.08646
      H1     4.84500   12.69200   16.16563
       H     7.44231   16.04045   19.03659
       O     7.99248   15.98850   19.87673
      H1     8.78054   15.71359   19.43382
       H    10.71949   18.54377   14.98409
       O    10.39795   17.69877   15.34636
      H1    11.19400   17.18569   15.43202
       H     9.32494   10.65058   19.39229
       O    10.07237   10.07019   19.35116
      H1    10.31007   10.20449   18.40985
       H    11.53756   19.28551   12.31533
       O    11.85640   18.92631   11.50599
      H1    11.67128   17.97656   11.59113
       H    14.61328   10.31528   12.86988
       O    15.35988    9.72993   13.14968
      H1    15.91113    9.67126   12.38126
       H    10.75737    8.26432   16.46986
       O    11.46699    8.49585   15.86712
      H1    11.08952    9.26939   15.29464
       H    18.95379   17.32678   10.44762
       O    18.00758   17.19190   10.35996
      H1    17.96852   16.49496    9.64410
       H     5.16872   17.29272   11.43198
       O     5.26848   18.02096   12.06606
      H1     5.82698   18.53533   11.51221
       H    14.93488   13.32748   12.07852
       O    14.13070   13.84599   12.29108
      H1    14.19341   14.58298   11.59757
       H     2.06609   15.50488   13.78752
       O     2.95100   15.77047   13.66441
      H1     2.91789   16.66914   14.06224
       H     9.62670   10.03831   13.31774
       O    10.11093   10.33541   14.11505
      H1    10.97289   10.60103   13.82234
       H    12.99423   11.47837   12.98727
       O    13.18703   11.09433   12.06300
      H1    13.72192   11.88051   11.76019
       H    12.18581   15.71685   10.55729
       O    11.33896   16.03639   10.96853
      H1    10.88137   15.23721   10.65075
       H     9.85615   17.05659   11.27333
       O     8.93027   17.16890   11.52656
      H1     8.94713   18.05671   11.84762
       H    10.51460   14.43838   15.91420
       O    11.16627   14.42435   15.13898
      H1    10.58171   14.62851   14.34606
       H    17.77531   16.09371   12.11264
       O    17.53609   16.05596   13.07029
      H1    18.27466   15.56939   13.48442
       H    17.37052   16.88849   18.45444
       O    18.22684   17.28785   18.60254
      H1    18.08729   18.10422   19.21229
       H     8.87453   13.71145   12.80038
       O     9.23143   14.48150   13.35428
      H1     8.88722   15.24669   12.87491
       H    12.74185   16.36548   17.46419
       O    12.84593   16.55113   18.40438
      H1    13.72730   16.12426   18.59190
       H    18.57787   13.06189   15.41393
       O    18.84219   13.97510   15.21302
      H1    19.52447   13.82123   14.46942
       H     9.11564   13.57048    7.33336
       O     9.10086   14.51032    7.71022
      H1     8.57942   14.91515    6.99542
       H     2.65589   17.64005   18.65515
       O     3.52692   18.04690   18.49604
      H1     3.39947   18.53185   17.68871
       H    15.28932   18.66645   11.55181
       O    15.34213   18.32734   10.64357
      H1    16.26165   18.08341   10.56636
       H    14.31617   15.37385    9.58274
       O    14.00728   15.74317   10.41890
      H1    14.48951   16.59273   10.46082
       H    11.37492   11.46455   16.35819
       O    10.76876   11.55941   17.14494
      H1     9.93748   11.66313   16.69105
       H    13.24647   18.33042    8.20697
       O    14.00881   18.96461    8.11986
      H1    14.64423   18.44695    8.63948
       H     5.65802   14.81542   19.62958
       O     5.19903   13.97225   19.79339
      H1     5.08903   13.60493   18.92434
       H     9.59607   17.57075   19.01062
       O     9.69931   18.16194   18.22002
      H1     9.64306   17.56862   17.47115
       H     9.37391   18.73614    8.88953
       O     8.77913   18.00065    8.83342
      H1     8.71047   17.65940    9.77188
       H    16.90652   11.85046   18.36224
       O    16.90065   12.76864   18.56063
      H1    17.80653   12.98906   18.65788
       H     5.64028   17.72750    9.22479
       O     5.97576   18.21155    8.40273
      H1     6.94493   17.91937    8.29522
       H     9.08370   14.32552   17.28604
       O     9.94749   14.30802   17.76722
      H1     9.76852   14.04706   18.66511
       H    17.26252   13.99969   12.42635
       O    16.91432   13.30103   11.82712
      H1    17.03717   13.63351   10.92804
       H    16.40551   10.97884   14.71292
       O    16.75081   11.25651   15.59636
      H1    16.01156   11.81651   15.89785
       H     5.60126   16.21126   14.96625
       O     5.60998   15.29354   15.33477
      H1     6.56168   15.09070   15.25253
       H     7.85762   18.49042   18.14999
       O     7.04557   18.77018   17.67198
      H1     6.48948   18.00806   18.01086
       H    13.74170   17.52939   15.60142
       O    13.03264   16.86791   15.67498
      H1    13.30241   16.21524   14.99370
       H     4.48368   12.33833   14.11048
       O     5.35205   12.71033   14.38836
      H1     5.17784   13.66995   14.45077
       H    16.02798   18.17121   15.70710
       O    15.22734   18.63430   15.36363
      H1    15.36740   18.76169   14.35376
       H    11.18212   16.87845    8.95940
       O    11.73514   17.29705    8.26876
      H1    11.08363   17.44541    7.51901
       H    12.10287   12.63679   14.81717
       O    12.46504   11.80588   14.59713
      H1    13.26651   11.94140   15.16048
       H    13.80953   16.14704    6.53191
       O    13.19295   15.55455    6.98992
      H1    12.76142   16.17901    7.63387
       H    16.05885   15.29905   19.64684
       O    15.75163   15.27593   18.76475
      H1    16.09420   14.45587   18.39665
       H     6.92691   13.33312    9.83493
       O     7.82005   13.71179    9.95608
      H1     8.03864   13.99431    9.02031
       H     5.54093   15.19234    9.86694
       O     5.84016   15.93221   10.40792
      H1     6.69461   15.59560   10.73407
       H    15.45581   14.05204    8.65939
       O    14.50394   13.93965    8.65138
      H1    14.20302   14.46630    7.92106
       H    14.27687   13.00778   16.75865
       O    14.72414   12.95428   15.91176
      H1    14.88092   13.89702   15.79273
       H    14.62838   14.77758   13.54027
       O    14.95590   15.32126   14.29515
      H1    15.80567   15.62805   13.98344
       H     6.96264   12.51882   12.16890
       O     7.55827   12.19256   12.82499
      H1     7.16697   12.37590   13.68693
       H    18.35377   16.90737   15.88911
       O    17.99368   17.83350   15.91463
      H1    17.98715   18.00025   16.86002
       H    12.52414   10.88763   19.78454
       O    13.48185   10.68418   19.80769
      H1    13.56726   10.59048   18.86343
       H    11.39171   11.93597    8.99590
       O    11.30944   11.11926    8.47759
      H1    12.20041   10.95990    8.18889
       H     8.30878   14.31581   14.80931
       O     8.01339   14.32440   15.73216
      H1     7.86893   13.36681   15.89601

