180
frame 6 | Written by MDAnalysis XYZWriter (release 2.4.3)
       H     3.49250    7.97809  -12.81602
       O     4.16255    8.22032  -12.15837
      H1     4.22030    9.18319  -12.28203
       H     0.24057   15.19416  -13.25488
       O     0.29099   16.10078  -12.78155
      H1     0.66461   16.68007  -13.48634
       H     9.68284   10.38215   -9.90002
       O     8.80928   10.16430  -10.23582
      H1     8.35152    9.72001   -9.48132
       H     6.46716   12.37319  -11.39152
       O     6.27510   12.95986  -10.60219
      H1     5.51373   13.49236  -10.86304
       H     2.76558   10.70483  -12.28770
       O     3.69165   10.98041  -12.18024
      H1     3.74156   10.82869  -11.22394
       H     6.58988    9.21122  -15.29669
       O     7.26053    9.82535  -14.90406
      H1     6.89009   10.69937  -15.21465
       H    -2.05288   12.27909   -7.39732
       O    -2.00097   11.32940   -7.54849
      H1    -1.31400   11.33207   -8.22595
       H     7.50191   15.74190  -15.57343
       O     8.38756   16.09008  -15.54278
      H1     8.24467   17.04173  -15.66278
       H    -3.20754    8.39535  -12.65589
       O    -2.28209    8.47354  -12.28053
      H1    -2.18949    9.40301  -12.14183
       H     5.53215   17.14690  -14.77298
       O     4.55407   17.41606  -14.61579
      H1     4.53354   18.34347  -14.61089
       H     0.97177    8.23069   -9.40949
       O     0.05468    8.17949   -9.68184
      H1    -0.02546    7.32997  -10.16339
       H     1.63687   16.26100  -11.57379
       O     2.17845   16.40094  -10.78056
      H1     2.20083   17.37813  -10.74920
       H     8.22183   13.02068  -14.28749
       O     7.88011   12.73552  -15.17210
      H1     8.65145   12.40620  -15.65442
       H     1.92790   13.57934  -18.66227
       O     1.79857   14.11606  -17.84672
      H1     2.15655   14.90862  -18.22668
       H     7.98741   12.41367   -8.34478
       O     8.91676   12.64242   -8.08686
      H1     9.25763   13.32585   -8.70249
       H     4.69402   12.46691  -15.92442
       O     4.66337   11.53581  -16.19833
      H1     4.83488   11.70260  -17.15901
       H     6.99267    8.20669   -7.71648
       O     7.45684    8.14637   -8.58675
      H1     7.04810    7.45204   -9.07811
       H     2.51267   11.85973  -15.74459
       O     1.49346   11.95503  -15.74952
      H1     1.41774   12.64688  -16.47990
       H     1.02291   14.08235   -6.47005
       O     0.57322   14.15836   -7.31293
      H1    -0.35321   14.16550   -6.97198
       H     1.26473    9.10497  -12.36073
       O     1.16252    9.97357  -11.91639
      H1     0.62620    9.70812  -11.15845
       H     4.31713    7.03713  -15.71108
       O     3.35637    6.89488  -15.89497
      H1     2.94030    7.62896  -15.38351
       H    -0.30047   12.69909   -9.64729
       O     0.00134   11.99909   -9.03873
      H1     0.39098   12.59779   -8.34593
       H     6.02900   11.27731   -8.26560
       O     6.60322   11.25848   -7.49093
      H1     6.71222   10.31492   -7.27802
       H     6.59145    6.53391  -15.21534
       O     5.96611    7.21581  -15.47775
      H1     6.13158    7.27659  -16.44297
       H     4.69842   17.70836   -6.46684
       O     3.69966   17.67428   -6.35381
      H1     3.42779   17.01881   -7.02312
       H     2.24948    9.90730  -15.66036
       O     3.02465    9.49962  -15.30435
      H1     3.65051   10.24982  -15.55727
       H     4.51028   11.78203   -9.42390
       O     4.83512   10.92379   -9.69044
      H1     5.69361   11.08337  -10.12327
       H     5.35719   11.61945   -4.22003
       O     6.19008   11.41239   -4.66011
      H1     5.96617   11.57122   -5.60764
       H    10.49066    9.23109  -15.87985
       O     9.71213    9.74208  -16.25830
      H1     9.00916    9.71835  -15.58592
       H     0.90806   12.14853  -12.59843
       O     1.18611   12.89997  -13.21725
      H1     1.26155   12.44600  -14.03842
       H     3.11100    6.79759   -8.87819
       O     2.71150    7.61471   -9.18358
      H1     3.11745    7.77405  -10.07819
       H    -1.45296   15.95353  -11.96657
       O    -2.44046   15.92259  -11.81847
      H1    -2.54025   15.72131  -10.90459
       H     7.11521    7.87394  -11.98104
       O     7.75599    8.47530  -12.32074
      H1     8.12219    8.87495  -11.50791
       H    -0.42054   11.09449  -15.10636
       O    -0.75489   10.37864  -14.53063
      H1    -0.05054   10.40759  -13.87466
       H    -2.61204   12.51180  -11.90647
       O    -1.78123   12.94380  -11.99538
      H1    -1.99080   13.79495  -11.68817
       H     4.98597   13.43369  -19.34802
       O     5.32893   12.72258  -18.72798
      H1     5.51123   13.36427  -18.05812
       H     0.55713   18.87728  -14.29332
       O     1.28307   18.22971  -14.36402
      H1     1.91087   18.60053  -13.65404
       H     6.40892   13.99110   -9.03739
       O     6.25866   14.76925   -8.43633
      H1     6.29353   14.37190   -7.55468
       H    11.29961   14.27301  -10.65553
       O    10.88821   13.40844  -10.86916
      H1    10.21169   13.76573  -11.49154
       H    -0.44808   17.98944  -12.36874
       O    -0.40427   18.81436  -11.90880
      H1    -1.32049   19.12004  -11.94440
       H     9.35408   14.92376  -13.59222
       O     8.92188   14.20743  -13.06201
      H1     8.03992   14.58767  -12.92647
       H     4.04846   13.91491  -14.22746
       O     3.96287   13.90399  -15.18912
      H1     4.44445   14.72593  -15.36157
       H     5.32135    6.70612  -12.86587
       O     5.75063    5.87074  -12.65926
      H1     6.02638    5.92183  -11.72804
       H     1.70549    9.93983  -18.26776
       O     0.98028    9.52401  -17.73658
      H1     0.19084   10.07019  -17.97593
       H     1.59907   16.38294  -16.31054
       O     2.50298   16.66918  -16.62185
      H1     3.02063   16.86395  -15.81423
       H     7.86499   13.24811   -6.67382
       O     7.70100   13.74196   -5.79276
      H1     7.02533   13.23074   -5.31788
       H     6.26686   14.44149  -13.49285
       O     6.14372   15.34013  -13.64005
      H1     5.79787   15.70673  -12.84326
       H     1.80914    6.78066  -12.13564
       O     1.67459    7.35156  -12.88585
      H1     0.89705    6.97220  -13.28107
       H     2.80661   13.56078  -12.37026
       O     3.78375   13.48488  -12.21016
      H1     3.93652   12.51667  -12.22911
       H     3.44844   12.90471   -7.97216
       O     3.48821   12.97879   -8.91834
      H1     3.72322   13.86684   -9.02570
       H     3.05848    9.64612  -19.84450
       O     3.35253   10.19047  -19.08143
      H1     4.04542    9.73925  -18.60769
       H     6.70475   14.93328  -17.36392
       O     6.24908   14.57435  -16.60104
      H1     6.85464   13.87487  -16.27286
       H     3.72861   16.91469  -11.64671
       O     4.54777   17.32983  -11.95504
      H1     4.26392   17.57204  -12.83162
       H    -0.99037   14.88721  -15.98419
       O    -0.26276   15.47504  -16.25520
      H1     0.28213   14.89606  -16.84836
       H     3.13024   12.77488   -5.62767
       O     3.93704   12.53097   -6.17423
      H1     3.65876   11.59683   -6.38808
       H     5.59236   18.67890   -9.20628
       O     5.99592   17.90554   -8.87237
      H1     5.62030   17.14566   -9.39115
       H     3.78996    9.19775   -7.61725
       O     3.66450    9.23981   -6.66343
      H1     2.78411    8.84681   -6.46261
       H     1.42932   15.61227   -7.50021
       O     1.78488   16.45854   -7.84282
      H1     1.77217   16.35971   -8.76708
       H     5.60219   11.15709  -13.24272
       O     6.46096   11.47616  -12.87893
      H1     7.14657   10.87782  -13.32974
       H     0.05833   11.19425   -6.66103
       O     0.50990   10.93162   -5.85758
      H1    -0.22158   11.15988   -5.24887

