180
frame 10 | Written by MDAnalysis XYZWriter (release 2.4.3)
       H     3.66454  -11.36467   18.60494
       O     3.69430  -10.47224   18.92294
      H1     3.19808  -10.53541   19.78137
       H    -5.08025  -11.12089   20.07389
       O    -5.73442  -10.67796   19.44477
      H1    -5.79598  -11.35240   18.78448
       H    -0.94620  -14.07155   18.44258
       O    -0.59094  -13.67572   19.22395
      H1    -0.31855  -12.78609   18.89893
       H    -0.82719   -6.48604   18.49556
       O    -0.42522   -5.71473   18.89059
      H1    -0.53987   -5.04647   18.20328
       H     0.99284   -9.88205   14.33066
       O     0.47324   -9.18246   13.94054
      H1     0.23520   -9.61692   13.05893
       H     2.31366   -2.90350   15.09534
       O     3.13900   -2.98368   15.51243
      H1     2.89435   -2.81056   16.43612
       H     5.01603   -0.75277   18.44977
       O     4.61999   -1.33369   19.10341
      H1     3.90434   -0.76579   19.51266
       H    -1.05212    1.09188   15.49582
       O    -1.21304    0.49118   16.24823
      H1    -1.87254    0.96602   16.77245
       H    -4.43212   -5.35587   16.69260
       O    -4.76491   -5.23155   15.79666
      H1    -5.43531   -4.52984   16.03188
       H     2.51518   -2.16207   18.31894
       O     2.17229   -3.04121   18.12615
      H1     2.71824   -3.63134   18.57370
       H    -3.82243  -11.09926   13.44820
       O    -4.07818  -10.34466   14.06413
      H1    -3.32388   -9.74183   13.86279
       H    -2.30717   -7.85946   17.30486
       O    -3.16154   -7.36426   17.40056
      H1    -3.67157   -8.15761   17.24308
       H    -2.63264  -11.26172   15.96791
       O    -2.25390  -11.84984   15.33104
      H1    -2.29311  -11.32468   14.52817
       H    -3.78861   -6.11200   18.55965
       O    -4.28091   -5.29706   18.64719
      H1    -5.12640   -5.71218   18.85145
       H     6.31136   -5.70740   16.92018
       O     5.70277   -6.46121   17.27479
      H1     4.98331   -6.33149   16.60447
       H     0.89483   -6.32979   18.32159
       O     1.74403   -6.84190   18.06123
      H1     1.45022   -7.64205   17.66695
       H     4.45041   -8.64410   12.33736
       O     5.22969   -9.19958   12.30822
      H1     5.94084   -8.52122   12.40851
       H     0.65002    0.06016   16.89143
       O     1.54819   -0.01670   17.29555
      H1     1.93717    0.83888   16.99820
       H     6.30819   -7.85148   16.42584
       O     6.60132   -8.54911   15.78209
      H1     6.42480   -9.42397   16.11889
       H     8.25684   -7.88816   16.70720
       O     9.20224   -7.86228   16.75768
      H1     9.31590   -7.73508   17.72510
       H     8.09515   -4.91569   15.89559
       O     7.35266   -4.54355   16.44217
      H1     7.81783   -4.53230   17.30265
       H    -6.47014   -7.93297   14.89442
       O    -6.42745   -7.39387   15.67271
      H1    -5.84135   -6.72458   15.35465
       H    -4.23442  -10.71441   17.56335
       O    -3.98420   -9.93304   17.01699
      H1    -4.15674  -10.31210   16.15705
       H    -2.17721   -1.19200   16.19235
       O    -2.62235   -2.09766   16.21878
      H1    -1.91456   -2.63267   16.53314
       H     0.23460  -10.31180   11.20596
       O    -0.58727  -10.01330   11.60136
      H1    -0.81044   -9.13586   11.28178
       H    -4.55694   -1.43965   18.90538
       O    -4.34018   -0.93114   18.12694
      H1    -3.70651   -1.52644   17.61002
       H     3.42753  -13.50142   19.17566
       O     2.81860  -13.03006   18.56903
      H1     2.12030  -12.74094   19.18045
       H     0.10544   -2.88920   12.66230
       O    -0.84847   -3.07782   12.67559
      H1    -1.26664   -2.98879   11.81095
       H     2.65340  -13.82296   13.46865
       O     2.90720  -13.30195   14.25754
      H1     2.48334  -13.79696   14.98035
       H     3.17400   -6.92687   13.92193
       O     3.01867   -7.47664   13.11067
      H1     2.29915   -8.04404   13.38695
       H     2.73532   -9.76984   17.47091
       O     2.20241   -9.41964   16.70787
      H1     2.69148   -9.92291   16.05400
       H     4.85844  -10.82839   15.92179
       O     5.60190  -11.11844   16.44049
      H1     5.29916  -10.91651   17.36695
       H    -6.32643   -2.60600   15.21937
       O    -6.56530   -3.29424   15.89840
      H1    -6.58603   -2.72865   16.65877
       H     4.51204  -10.48476   13.69969
       O     3.89568  -10.74624   14.43139
      H1     3.72410  -11.68369   14.23324
       H     0.47801    1.14240   18.96913
       O    -0.15860    1.82926   19.11518
      H1    -0.96133    1.31580   19.07220
       H     2.32052   -3.45394   12.49244
       O     1.79442   -2.90461   13.00854
      H1     1.92282   -2.03975   12.61736
       H    -2.47841   -2.76890   13.24295
       O    -3.46498   -2.74886   13.44999
      H1    -3.42957   -2.82717   14.42422
       H    -3.00033    1.18507   19.90265
       O    -2.73178    1.10759   18.98191
      H1    -3.26792    0.32062   18.71559
       H    -2.31450  -11.12591   19.08359
       O    -2.85952  -11.88927   19.30935
      H1    -2.26947  -12.63962   19.30416
       H     2.25082   -6.28998   12.05523
       O     1.71160   -5.80445   11.42360
      H1     1.72326   -6.39425   10.64228
       H    -0.61384   -4.51306   16.33812
       O    -0.65732   -3.80655   17.01519
      H1     0.23068   -3.63575   17.41493
       H     4.84669    0.11470   14.58156
       O     3.97059   -0.24678   14.50486
      H1     4.09358   -1.17546   14.81213
       H    -1.19410   -8.66865   14.07484
       O    -2.11763   -8.36771   13.86831
      H1    -2.22304   -7.49160   14.30980
       H     0.06518  -12.06216   15.00663
       O     0.92247  -11.66498   15.24380
      H1     1.48429  -12.30748   14.74436
       H    -5.78146   -8.51649   18.39178
       O    -6.11756   -7.60353   18.31453
      H1    -6.09946   -7.52897   17.31182
       H     7.10219   -5.78231   19.59355
       O     7.93754   -5.51739   19.16175
      H1     8.12170   -4.64186   19.57806
       H     0.35967   -5.34324   14.48663
       O    -0.22785   -5.82802   15.09076
      H1    -1.09371   -5.65371   14.62492
       H     6.07114  -13.37997   19.32463
       O     6.16824  -12.50195   18.96724
      H1     7.06624  -12.65878   18.73251
       H    -0.32393   -8.99806   16.77074
       O    -0.46978   -8.08932   17.14104
      H1    -0.30809   -7.44216   16.45519
       H     5.44007   -2.39411   16.59440
       O     6.14535   -2.13614   15.95022
      H1     6.66868   -2.94019   15.97687
       H     0.47909  -11.07396   17.25367
       O     0.28471  -11.28390   18.18475
      H1     0.51008  -10.49491   18.69205
       H     6.62108   -5.38863   13.31471
       O     6.21161   -4.51476   13.26946
      H1     5.72067   -4.52082   12.44768
       H    -2.75316   -5.92602   11.45563
       O    -3.21587   -5.11485   11.15533
      H1    -4.11681   -5.27630   11.56113
       H     4.70757  -14.02186   14.77651
       O     5.50356  -13.79113   15.29158
      H1     5.26593  -12.96406   15.71695
       H     3.25407   -5.92177   18.89642
       O     3.91310   -5.20188   19.02497
      H1     4.60731   -5.55726   18.42199
       H     3.79354   -4.59291   15.15438
       O     4.09787   -5.52376   15.08972
      H1     4.94230   -5.28972   14.61578
       H     6.00202   -6.14963   10.14432
       O     5.24792   -5.59036   10.41748
      H1     4.81499   -6.25933   10.96429
       H     8.20965   -7.09504   13.56435
       O     7.23560   -7.07173   13.42926
      H1     7.02770   -7.59318   14.27266
       H    -0.33492   -6.81049   11.52897
       O    -1.14100   -7.32111   11.32612
      H1    -1.52195   -7.63019   12.15278
       H    -3.51419   -5.18420   14.58451
       O    -2.66852   -5.44749   14.07456
      H1    -2.65379   -4.64815   13.54321

