180
frame 2 | Written by MDAnalysis XYZWriter (release 2.4.3)
       H    -2.44007    4.51202    4.36316
       O    -2.70177    4.63824    3.44592
      H1    -3.48145    5.21825    3.54357
       H     1.47851   -1.55974    5.07735
       O     0.87731   -1.54847    4.26601
      H1     0.07863   -1.48167    4.71865
       H     0.41918    5.31336    6.28116
       O     0.80824    4.50614    5.92466
      H1     0.81485    4.62221    4.98567
       H    -4.08590    8.01031    9.59521
       O    -3.55405    7.25887    9.30348
      H1    -3.03236    7.72367    8.59570
       H     1.34730    0.90891    6.12719
       O     1.26834    0.46931    7.02053
      H1     0.98316    1.20024    7.60118
       H     5.09312    4.64825   10.02388
       O     4.94451    5.28265    9.24519
      H1     4.69234    4.61975    8.60121
       H    -1.35233    3.90395   10.01381
       O    -1.16003    3.54094    9.13618
      H1    -1.82790    4.07697    8.68949
       H    -0.97144   11.00154    5.45928
       O    -1.28833   10.38588    4.80650
      H1    -0.54970   10.22243    4.17623
       H     0.66157    3.39506    8.46480
       O     1.52436    3.17750    8.70340
      H1     1.44928    3.70320    9.53378
       H    -4.61782    4.35957    8.53052
       O    -3.73283    4.72211    8.35911
      H1    -3.87348    5.65356    8.68648
       H     4.08227    1.98468    7.32667
       O     4.07449    2.83146    7.85053
      H1     3.14486    2.87594    8.13875
       H    -1.00531   -0.56100    7.83605
       O    -1.34332   -1.21354    8.50978
      H1    -1.56410   -0.60260    9.22584
       H     1.37584    0.12417   11.41317
       O     2.02746   -0.65843   11.36439
      H1     1.63196   -1.26622   10.66646
       H     1.22861    0.08964    4.00776
       O     1.58628    0.95072    4.13561
      H1     2.45452    0.95108    3.65573
       H    -6.30950    3.57676   10.80656
       O    -5.71905    3.04096   10.23832
      H1    -6.39713    2.50122    9.77570
       H     1.35382    5.18546   11.17572
       O     1.94007    4.44026   11.09409
      H1     1.93628    4.07209   12.04511
       H    -4.01214    7.90803    3.12428
       O    -4.33248    8.66632    2.62292
      H1    -3.85698    9.36957    3.08304
       H     6.10824    6.20924    1.76627
       O     5.98322    5.84700    2.69492
      H1     5.38114    5.07700    2.46350
       H    -7.51145    2.78873    6.05783
       O    -8.05073    2.11756    6.52750
      H1    -8.29306    1.52142    5.80139
       H    -4.29870    1.15854    8.17165
       O    -4.77187    1.45006    7.39594
      H1    -4.92308    0.60170    6.99866
       H    -7.86879    4.61735    5.10449
       O    -7.05502    4.50931    5.64402
      H1    -6.40997    4.86504    5.05375
       H    -5.45238    6.81382    4.23232
       O    -5.06420    5.91736    4.04261
      H1    -5.24213    5.73739    3.08998
       H    -6.49627    2.44542    3.35114
       O    -7.13441    1.95963    2.77747
      H1    -7.66576    1.43757    3.39487
       H    -1.47898    5.88117    0.41455
       O    -1.91388    6.15829   -0.45743
      H1    -1.81843    7.11253   -0.57817
       H    -2.15477    7.54900   10.45372
       O    -1.21543    7.31366   10.74285
      H1    -0.84243    7.29928    9.81843
       H    -2.55149   -1.37065    5.35526
       O    -1.81148   -1.98861    5.41239
      H1    -2.03701   -2.57680    4.70714
       H    -0.83383    8.91810    1.10590
       O    -0.67637    8.81723    2.07095
      H1    -0.83791    7.86076    2.11043
       H     3.66792    3.66200    3.45803
       O     4.54992    3.27261    3.29896
      H1     4.97455    3.56641    4.09093
       H    -1.96085    3.74474    6.34314
       O    -1.55893    3.33790    5.55110
      H1    -0.65333    3.67199    5.67965
       H     4.94267    0.81381    5.42204
       O     4.87115    0.79129    6.40075
      H1     5.80284    0.95057    6.54946
       H     1.53906    2.62825    3.60055
       O     1.88810    3.46893    3.20072
      H1     1.76483    3.19953    2.24953
       H     3.02137    7.30492    1.14153
       O     2.90113    6.44487    1.58617
      H1     2.97303    6.54198    2.54695
       H     0.18125    5.77866    2.48891
       O    -0.65870    6.09994    2.16145
      H1    -1.33678    5.58828    2.65952
       H    -7.01153    5.80175    7.25298
       O    -7.20923    6.56510    7.80264
      H1    -8.03215    6.27709    8.19727
       H    -0.03365   -1.61896    1.08497
       O     0.86144   -1.90205    1.43243
      H1     0.70603   -1.83706    2.35818
       H     1.87341    4.53761   -0.70035
       O     1.17900    5.13262   -0.38036
      H1     1.52206    5.55889    0.43532
       H     3.69939    6.15004    4.87704
       O     3.04001    6.56827    4.31164
      H1     2.32268    6.72230    4.98296
       H     1.97757    2.47613   -0.10259
       O     1.69136    2.07281    0.75536
      H1     1.31294    1.29405    0.38734
       H     0.06442   -2.30794    8.78447
       O     0.91219   -2.70991    9.05297
      H1     1.41458   -2.61155    8.20316
       H    -3.54379    3.25673   -0.97276
       O    -3.31066    3.41398   -0.03569
      H1    -2.77244    4.24652   -0.11873
       H    -2.11691    1.00915    3.52135
       O    -2.88960    0.44445    3.30173
      H1    -3.53138    1.09740    3.78645
       H     0.87536    2.26095   11.63205
       O     0.57919    1.49488   11.05718
      H1     0.80768    1.94479   10.21128
       H     4.34928    8.76221    4.94914
       O     4.43482    8.71114    3.98805
      H1     3.97071    7.88700    3.77336
       H     0.43658    7.23414    7.44412
       O    -0.09412    6.41108    7.74106
      H1    -0.99921    6.70739    7.52105
       H     1.86396   -0.97295    6.85343
       O     2.07500   -1.95600    6.74289
      H1     3.04486   -2.01842    6.72854
       H     5.29276    8.05485    7.65636
       O     4.38210    7.79460    7.93168
      H1     4.51755    6.94589    8.39263
       H    -2.27681    5.01342   12.16453
       O    -1.64875    4.80910   11.41418
      H1    -1.38979    5.68616   11.15571
       H    -2.53134    0.50647   10.65140
       O    -1.80404   -0.13474   10.93910
      H1    -1.04328    0.45793   11.17524
       H    -6.68073   -0.41712    4.93046
       O    -5.85897   -0.39771    5.43750
      H1    -6.16016   -0.89533    6.19117
       H    -2.28022    8.95060    7.82497
       O    -2.08730    8.15715    7.23384
      H1    -1.85476    8.65925    6.47999
       H     3.51242   -1.73721    1.90022
       O     3.23044   -0.87127    1.52232
      H1     2.29189   -0.91402    1.61105
       H    -3.31877   -4.11754    7.13281
       O    -2.36752   -4.01576    7.46795
      H1    -2.10535   -3.24917    6.94386
       H     0.64182    7.52057   11.51359
       O     1.36203    7.65052   12.19270
      H1     0.97844    7.37786   12.99096
       H     2.60745    8.12633    7.09281
       O     1.75724    8.12788    6.54324
      H1     1.85265    8.92512    6.06197
       H     4.89485    4.04685    6.28385
       O     5.40078    4.60018    5.65650
      H1     6.31019    4.41895    5.80799
       H    -3.21677    0.74238    1.34490
       O    -3.14643    0.84838    0.42466
      H1    -2.91399    1.81757    0.35583
       H    -2.61553    2.37229    9.85262
       O    -3.31745    1.73148   10.00810
      H1    -4.12969    2.30328   10.11624
       H    -5.86327    4.39235    0.61325
       O    -5.57136    4.41111    1.52380
      H1    -4.67903    4.03383    1.45122
       H    -4.93531    2.57963    5.33928
       O    -4.71492    2.50063    4.42469
      H1    -4.10712    3.26858    4.29366
       H     4.35230   -0.25483    2.79542
       O     4.84397    0.18690    3.52218
      H1     5.07475   -0.60308    3.98211

