180
frame 10 | Written by MDAnalysis XYZWriter (release 2.4.3)
       H    -1.50103   -8.50273  -13.68871
       O    -1.25701   -8.22157  -12.74855
      H1    -1.07630   -8.98819  -12.20120
       H    -4.15838  -12.68534  -14.54193
       O    -4.62982  -13.34478  -15.04058
      H1    -4.73274  -12.81874  -15.89829
       H    -2.05116    0.95562  -12.42699
       O    -2.38224    0.08641  -12.17320
      H1    -3.32872    0.26304  -12.08772
       H    -2.27399   -3.28324  -12.45801
       O    -2.73819   -2.57493  -12.89950
      H1    -2.29402   -1.80523  -12.43899
       H    -8.83734   -8.06205  -16.86519
       O    -9.73158   -8.15400  -17.17055
      H1    -9.87171   -7.35911  -17.77556
       H    -4.33653    0.87354  -15.91197
       O    -4.18285    0.14649  -15.24671
      H1    -3.26980   -0.19002  -15.45893
       H    -8.50609    0.04187  -18.07553
       O    -8.22779   -0.13014  -17.19635
      H1    -7.93682   -1.06847  -17.25466
       H    -2.68247  -10.57671  -14.13097
       O    -2.97256  -11.46117  -13.82222
      H1    -2.24424  -12.00130  -13.51307
       H    -6.30143    1.26794  -14.78062
       O    -7.17323    1.55304  -15.08067
      H1    -7.38946    0.72771  -15.57873
       H    -2.06682  -12.38778  -17.97518
       O    -2.12944  -12.38826  -17.02712
      H1    -2.06145  -13.35015  -16.80918
       H    -6.30645   -1.66683  -13.55934
       O    -6.59825   -1.09751  -14.31339
      H1    -7.52267   -0.91031  -14.10080
       H    -6.27436   -9.79759  -14.36557
       O    -5.58058   -9.60807  -15.07810
      H1    -5.64993   -8.64745  -15.18341
       H    -6.44115   -2.13805  -15.85898
       O    -6.21782   -2.76495  -16.58190
      H1    -5.46997   -2.40374  -17.07120
       H    -9.55194   -6.95590  -14.66944
       O    -9.71911   -7.64323  -13.97921
      H1   -10.37151   -8.25269  -14.34588
       H     0.60562   -2.33914  -12.19374
       O     0.32211   -2.08132  -11.20416
      H1     1.14845   -2.24999  -10.74645
       H    -7.44406   -5.16016  -12.52577
       O    -6.54351   -5.20239  -12.83684
      H1    -6.04815   -5.59279  -12.13379
       H     4.54801   -7.61375  -16.70847
       O     4.13902   -8.45841  -16.90746
      H1     4.84246   -8.77533  -17.49464
       H    -3.07207   -8.35812  -17.94190
       O    -3.73520   -7.91142  -17.32683
      H1    -4.43029   -8.56226  -17.48480
       H    -2.27216   -5.88607  -10.24003
       O    -2.50756   -6.40943   -9.44877
      H1    -2.94969   -5.76451   -8.92333
       H     0.31526    2.76061  -18.37030
       O     0.37120    3.43940  -17.66572
      H1    -0.54665    3.38944  -17.37775
       H     0.33226   -7.20703  -12.43601
       O     0.61181   -6.26722  -12.30467
      H1     1.22062   -6.38956  -11.57423
       H     3.66916   -6.33404  -14.52373
       O     4.53181   -6.66052  -14.28201
      H1     5.04226   -6.31139  -15.06787
       H    -8.43385   -9.02858  -13.54944
       O    -7.74648   -9.67689  -13.61058
      H1    -8.22875  -10.50595  -13.48746
       H     1.91169    1.53909  -14.95783
       O     1.46444    0.66206  -14.73279
      H1     2.03867    0.33091  -13.97200
       H     1.04441   -3.36773  -17.50309
       O     1.84702   -2.76992  -17.59349
      H1     1.81685   -2.43533  -18.48629
       H    -2.26150   -1.75638  -14.18760
       O    -1.70541   -1.19027  -14.79509
      H1    -1.66089   -0.34401  -14.18452
       H    -9.36971   -4.71498  -15.63273
       O    -9.04553   -5.57928  -15.55605
      H1    -8.42646   -5.72314  -16.26222
       H    -5.49039    0.59052  -13.50933
       O    -5.15976    1.30502  -12.96856
      H1    -4.60587    1.74908  -13.64871
       H    -3.05212   -7.44875  -12.74064
       O    -3.99934   -7.11800  -12.47043
      H1    -4.46740   -7.15888  -13.37033
       H    -0.82284   -4.15251  -11.23945
       O    -1.49060   -4.76097  -11.59079
      H1    -0.79437   -5.27825  -12.05864
       H     2.86503   -8.19166  -15.29208
       O     1.92810   -8.26543  -15.01518
      H1     1.62369   -7.33660  -15.12791
       H    -3.54326   -3.85181  -15.24538
       O    -4.27705   -4.39747  -15.54913
      H1    -4.86194   -3.70276  -15.84325
       H     1.43442   -9.47436  -18.86188
       O     0.69117   -8.97068  -19.27904
      H1     1.25097   -8.31003  -19.71664
       H     3.33878   -3.80543  -17.45595
       O     4.13144   -4.35366  -17.45538
      H1     4.22020   -4.55914  -18.41121
       H     0.73212  -11.09933  -16.11658
       O     0.36042  -10.68251  -15.37128
      H1     0.74308   -9.85479  -15.51388
       H    -0.80532   -4.79849  -17.04323
       O     0.08173   -4.99684  -17.32898
      H1     0.03047   -5.18674  -18.27947
       H    -6.82851   -9.43634  -18.36229
       O    -6.67455   -8.96384  -17.51303
      H1    -6.67159   -9.73917  -16.94380
       H    -8.32739   -3.26344  -19.80961
       O    -8.63497   -3.40758  -18.90676
      H1    -8.08389   -4.07967  -18.56783
       H    -3.75915  -11.53179  -16.78851
       O    -4.67936  -11.19310  -17.06930
      H1    -4.90095  -10.62056  -16.31790
       H     5.16523   -3.21074  -15.79718
       O     5.85179   -3.33430  -15.17374
      H1     6.45903   -2.65260  -15.39139
       H    -7.74053    2.30118  -16.65336
       O    -8.19494    2.79289  -17.36526
      H1    -8.91360    3.16549  -16.84345
       H    -9.97278   -2.05380  -15.96157
       O    -9.88802   -2.95657  -15.72635
      H1    -9.35399   -3.03923  -14.93162
       H     1.15080  -10.71396  -13.67139
       O     1.49600  -10.85581  -12.77923
      H1     0.67140  -10.60322  -12.28483
       H    -3.31694   -5.08078  -17.59982
       O    -2.68883   -4.38418  -17.92683
      H1    -2.76684   -4.70443  -18.87222
       H    -4.63675   -8.45060  -11.43517
       O    -4.73641   -8.61947  -10.44875
      H1    -3.94676   -8.14393  -10.09620
       H    -1.74894  -10.58899  -17.73873
       O    -1.78585   -9.73502  -18.22453
      H1    -0.87660   -9.53538  -18.47189
       H    -4.50750   -2.67839  -12.42845
       O    -5.46170   -2.65978  -12.29218
      H1    -5.85050   -3.56424  -12.44140
       H    -2.22068    3.50284  -16.16991
       O    -2.01041    2.59596  -16.24507
      H1    -2.67206    2.42580  -17.00970
       H    -5.76264   -3.32315  -18.87682
       O    -4.98195   -2.77377  -19.03668
      H1    -4.32928   -3.37970  -18.59082
       H     3.08874   -1.48386  -14.86012
       O     2.86928   -2.37914  -15.08530
      H1     2.32072   -2.32881  -15.89052
       H     2.40531  -11.07748  -17.18622
       O     2.36277  -10.30439  -17.77315
      H1     2.76980   -9.61232  -17.20598
       H    -1.78477    2.33056  -14.22257
       O    -1.03445    1.93509  -13.73709
      H1    -0.60878    1.43486  -14.49721
       H    -1.30293   -9.66660  -15.54050
       O    -1.99084   -9.06054  -15.22508
      H1    -2.45095   -8.77705  -16.06270
       H     3.57511   -0.31628  -17.67344
       O     3.13667    0.11369  -18.38286
      H1     3.53222    0.93080  -18.60221
       H   -11.25719   -6.39458  -19.08778
       O   -10.51227   -6.05665  -18.52795
      H1    -9.85925   -5.76065  -19.17332
       H    -6.49525   -5.75235  -16.73551
       O    -7.05468   -6.17161  -17.48204
      H1    -6.74513   -7.05213  -17.54813
       H     1.26284   -5.17550  -15.45409
       O     1.80009   -5.63018  -14.81968
      H1     1.32489   -5.53432  -13.96307
       H    -4.88889    2.95342  -17.38949
       O    -4.58773    2.08481  -17.76793
      H1    -4.84029    2.17329  -18.68224
       H    -4.88455   -6.15156  -15.11290
       O    -5.49979   -6.84903  -14.80151
      H1    -6.22666   -6.36890  -14.28795
       H     0.02435   -2.33027  -14.23920
       O     0.43984   -2.99954  -13.67712
      H1     1.34494   -2.97675  -14.02336

