180
frame 8 | Written by MDAnalysis XYZWriter (release 2.4.3)
       H    13.69148  -18.69318   -3.77978
       O    13.28899  -18.37262   -4.60346
      H1    13.40858  -19.17965   -5.20157
       H    16.48985  -17.44634    3.76702
       O    16.22209  -17.28883    2.85176
      H1    15.36147  -17.61311    2.86572
       H     8.15672  -16.24778    4.71149
       O     8.43948  -15.46125    5.14974
      H1     9.35434  -15.40885    4.91876
       H    11.36135  -13.88631   -4.26979
       O    10.51404  -13.79841   -4.76127
      H1    10.65548  -12.94575   -5.15183
       H    16.28592  -17.51381   -2.43957
       O    16.48067  -16.57129   -2.64654
      H1    17.47501  -16.57169   -2.32667
       H    12.58004  -14.90520   -1.86714
       O    12.41912  -15.50361   -1.13878
      H1    11.89767  -16.11545   -1.64046
       H     6.34466  -17.25409    6.23843
       O     6.51389  -17.58334    7.16231
      H1     7.27372  -18.16626    7.00890
       H     7.09328  -13.14050    2.33937
       O     7.82872  -13.19178    1.58124
      H1     8.43630  -12.53596    1.98999
       H    10.50969  -17.87936    7.03551
       O     9.57949  -17.69462    7.10261
      H1     9.45422  -16.94374    6.54539
       H    16.03976  -14.01327    8.15340
       O    16.13794  -14.87279    7.71905
      H1    15.33674  -14.97001    7.20105
       H    11.68365  -14.16827    2.20687
       O    11.51143  -13.26765    2.54624
      H1    11.15132  -12.82006    1.78799
       H    10.30848  -16.82227   -3.47301
       O    11.00128  -17.00231   -2.82233
      H1    11.45810  -17.68804   -3.24450
       H     9.20610  -10.58873    3.82402
       O     8.44906  -10.92651    3.39315
      H1     7.71263  -10.46397    3.85568
       H    18.08941  -19.27225    0.58514
       O    17.51874  -19.49796    1.42840
      H1    17.28296  -18.59587    1.73431
       H     8.42856  -15.97477   -4.35205
       O     9.19196  -16.17723   -4.92097
      H1     9.57980  -15.25908   -4.87700
       H     2.96498  -19.16752    5.15235
       O     3.85866  -18.71962    5.06425
      H1     4.31964  -19.05567    4.27824
       H    14.87679  -17.30680    7.12380
       O    15.50770  -17.99332    6.77323
      H1    15.11092  -18.81006    7.17345
       H    10.20147  -17.34622    0.17984
       O    10.79159  -17.36707    1.00334
      H1    10.78274  -16.42985    1.22056
       H    16.59721  -14.96869    0.85347
       O    17.46012  -15.01776    1.39144
      H1    17.25843  -15.82723    1.90552
       H     6.91179  -15.56219   -2.74559
       O     7.22723  -14.95040   -3.39341
      H1     6.57631  -15.05665   -4.14917
       H     8.28767  -15.92583    1.04531
       O     7.73322  -16.66000    1.32240
      H1     7.15461  -16.64042    0.54285
       H    12.86973  -16.48417    1.70251
       O    12.85786  -15.77089    2.37066
      H1    13.74821  -15.33327    2.18996
       H     7.52640  -17.22994   -1.21391
       O     6.85428  -16.50781   -1.16661
      H1     6.02650  -16.93682   -1.45650
       H     3.45190  -17.06810    4.68319
       O     2.81288  -16.38692    4.47515
      H1     2.55550  -16.09378    5.32062
       H     5.28573  -11.69257   -0.68953
       O     5.33952  -12.62961   -0.46010
      H1     6.08236  -12.69916    0.13483
       H    18.33697  -19.43061    8.49618
       O    18.57208  -19.79801    7.61368
      H1    18.37756  -19.05539    6.97775
       H    13.22242  -13.83595   -3.69720
       O    12.70466  -13.45167   -2.97696
      H1    13.06008  -12.54459   -2.93656
       H     9.49684   -9.91714    5.84442
       O    10.24001  -10.47741    5.55939
      H1    10.99354   -9.86162    5.45573
       H     9.38922  -10.84478    1.81698
       O    10.20463  -10.73960    1.34181
      H1     9.97907  -10.76912    0.38806
       H     8.00450  -13.70733    5.32272
       O     7.61889  -12.79143    5.40404
      H1     8.07954  -12.35344    4.64087
       H     3.70167  -14.64126    1.82112
       O     4.19529  -15.33078    2.31229
      H1     3.43878  -15.60789    2.88753
       H    16.21169  -16.23391    9.04590
       O    16.31198  -16.44120   10.00741
      H1    15.59429  -17.06430   10.25623
       H    13.42623  -14.58623    9.93536
       O    12.82052  -15.33800    9.68180
      H1    13.47201  -16.11793    9.72474
       H    13.77865  -14.23585    5.22209
       O    14.47193  -14.79094    4.74435
      H1    13.87636  -15.33901    4.19868
       H     8.11416  -19.72993    2.09450
       O     7.23981  -19.37480    1.79519
      H1     7.54379  -18.46765    1.63357
       H    13.88790  -19.23626    4.46955
       O    13.91068  -18.30502    4.32039
      H1    14.29287  -17.85008    5.07766
       H    17.39772  -19.12196    4.80578
       O    17.70660  -18.26526    5.15107
      H1    17.03168  -18.08107    5.89858
       H     8.96811  -13.08169    6.51809
       O     9.78957  -12.77512    6.96375
      H1     9.94049  -11.93201    6.55153
       H    13.33337  -15.26742    6.65698
       O    13.41692  -16.07256    7.28205
      H1    13.05458  -15.69095    8.10834
       H    15.02638  -19.42629   -2.05193
       O    14.33132  -18.76983   -2.01530
      H1    13.90440  -18.74925   -1.13874
       H    15.36141  -16.12467   -0.88237
       O    15.05136  -15.94437   -0.01372
      H1    14.16427  -15.81056   -0.34357
       H     6.12695  -13.23633    4.22825
       O     5.71732  -12.99088    3.37125
      H1     5.08683  -13.76755    3.15213
       H    12.59870  -17.63848    7.09848
       O    12.26025  -18.55153    7.07047
      H1    12.07841  -18.68434    8.03630
       H    11.83418  -19.04171   10.76789
       O    11.22150  -18.92451   10.02531
      H1    10.96916  -18.03134   10.20385
       H    10.36498  -13.80600   -2.51351
       O     9.49231  -13.84317   -2.07170
      H1     8.86532  -14.14997   -2.74111
       H    11.15445  -16.09750    4.08023
       O    10.92772  -15.32402    4.61517
      H1    11.11591  -14.62788    3.99301
       H     7.11459  -17.26917    3.27053
       O     6.78114  -17.59660    4.05465
      H1     6.61769  -18.53664    3.71422
       H    11.28912  -18.13586    2.80387
       O    11.11961  -18.25118    3.73352
      H1    11.96484  -18.46641    4.08092
       H     9.25411  -10.44599   -1.37369
       O     9.98755  -11.09000   -1.28251
      H1     9.50230  -11.89387   -1.61907
       H    10.16140  -12.77094   10.23519
       O    10.64033  -12.28206    9.56596
      H1    10.42675  -12.78422    8.78720
       H    12.81597  -12.37639    6.36498
       O    12.62726  -13.34709    6.29154
      H1    11.73824  -13.33350    5.92098
       H     9.16652  -14.30338    0.85899
       O     9.94692  -14.77063    0.47551
      H1     9.80365  -14.65599   -0.48288
       H    14.67122  -18.85476    0.88961
       O    14.00065  -18.17865    1.02873
      H1    14.47484  -17.42923    0.57643
       H     2.90054  -18.38385    1.19876
       O     3.36890  -17.70982    0.70298
      H1     3.53455  -17.06512    1.42971
       H     8.71062  -17.05015    9.86428
       O     9.53307  -16.53209    9.65981
      H1     9.65566  -16.61080    8.67316
       H     6.85849  -15.96058    8.00958
       O     6.87505  -15.09951    8.50561
      H1     7.70976  -15.21499    9.00393
       H    20.05608  -16.83540    2.97774
       O    19.65902  -16.54883    3.81119
      H1    18.71807  -16.78411    3.78318
       H    17.61039  -14.49453    3.24340
       O    17.60769  -14.47720    4.23436
      H1    16.68080  -14.36545    4.51966
       H    14.48239  -18.73399    9.28665
       O    14.20028  -17.94298    9.86510
      H1    13.80146  -18.40520   10.61158
       H     8.66426  -18.90304   -1.25293
       O     9.08419  -18.04542   -1.23314
      H1     9.71843  -18.04757   -1.94368

