180
frame 10 | Written by MDAnalysis XYZWriter (release 2.4.3)
       H    -5.08025  -11.12089   20.07389
       O    -5.73442  -10.67796   19.44477
      H1    -5.79598  -11.35240   18.78448
       H   -17.91017   -9.75111   16.82628
       O   -17.50598   -9.59046   15.98256
      H1   -16.61785  -10.11327   15.86018
       H    -9.52508  -17.07059   14.04374
       O    -9.32952  -17.62221   14.83012
      H1    -8.37205  -17.69437   14.67964
       H    -9.39584  -11.47852   10.50278
       O   -10.33489  -11.46807   10.18784
      H1   -10.65572  -10.57466   10.54479
       H    -7.14399  -11.88468   14.69359
       O    -6.19496  -11.95881   14.90734
      H1    -5.76600  -11.33010   14.27140
       H    -6.86912   -8.58149   11.89838
       O    -6.09658   -8.26170   11.39601
      H1    -6.58039   -8.41129   10.50150
       H    -4.43212   -5.35587   16.69260
       O    -4.76491   -5.23155   15.79666
      H1    -5.43531   -4.52984   16.03188
       H    -6.33461  -11.23867   11.38706
       O    -6.95413  -11.97085   11.24638
      H1    -7.27136  -11.73661   10.36882
       H    -9.18825  -15.61020   17.82783
       O    -9.06132  -15.72635   18.79444
      H1    -8.50064  -14.95675   18.99286
       H   -13.14796  -11.00265   13.36019
       O   -13.49581  -10.71939   12.51430
      H1   -14.18202  -10.00779   12.86346
       H    -6.00796  -13.63367   11.77811
       O    -5.46948  -14.37376   11.93276
      H1    -5.65007  -14.93064   11.19749
       H   -11.69197   -5.18115   17.46183
       O   -12.16460   -4.43194   17.87956
      H1   -13.08472   -4.72383   18.06041
       H   -10.29098  -13.56967   18.81734
       O   -10.71140  -12.71383   18.64969
      H1   -10.99272  -12.38767   19.51343
       H    -8.63420  -10.22036   13.01587
       O    -8.51521   -9.31719   12.58996
      H1    -9.37047   -9.27188   12.10592
       H    -3.82243  -11.09926   13.44820
       O    -4.07818  -10.34466   14.06413
      H1    -3.32388   -9.74183   13.86279
       H    -2.30717   -7.85946   17.30486
       O    -3.16154   -7.36426   17.40056
      H1    -3.67157   -8.15761   17.24308
       H    -7.92083  -16.04889   11.96380
       O    -8.75706  -16.00370   12.40280
      H1    -9.36891  -16.17976   11.70736
       H   -16.47714  -15.81175   17.19484
       O   -16.70378  -15.21740   16.45800
      H1   -15.97274  -14.63253   16.32991
       H    -2.63264  -11.26172   15.96791
       O    -2.25390  -11.84984   15.33104
      H1    -2.29311  -11.32468   14.52817
       H    -3.78861   -6.11200   18.55965
       O    -4.28091   -5.29706   18.64719
      H1    -5.12640   -5.71218   18.85145
       H    -6.47014   -7.93297   14.89442
       O    -6.42745   -7.39387   15.67271
      H1    -5.84135   -6.72458   15.35465
       H    -4.23442  -10.71441   17.56335
       O    -3.98420   -9.93304   17.01699
      H1    -4.15674  -10.31210   16.15705
       H   -14.15834  -13.27413   10.66192
       O   -13.64686  -14.06232   10.69385
      H1   -13.78632  -14.36621   11.59765
       H    -5.55270  -13.73865   17.53361
       O    -5.64487  -12.75523   17.49141
      H1    -6.01561  -12.58768   16.59797
       H    -8.16578   -7.48140   15.88522
       O    -9.12642   -7.69933   16.00544
      H1    -9.11407   -8.35062   16.77350
       H   -15.14447  -11.94083   12.34731
       O   -15.85754  -12.53375   12.25649
      H1   -16.55935  -12.18585   12.85871
       H    -2.10084  -15.57479   18.04666
       O    -1.63189  -15.28204   17.23026
      H1    -2.34996  -15.36935   16.56389
       H   -14.43098   -9.64597   18.19436
       O   -14.22437  -10.54435   17.97460
      H1   -14.63486  -10.67842   17.09066
       H    -3.89448  -14.28781   15.53148
       O    -3.25193  -14.55973   14.85705
      H1    -2.86545  -13.63067   14.76722
       H   -10.82661  -16.33318    9.69963
       O   -10.83857  -16.25014   10.67252
      H1   -11.02704  -15.28118   10.79261
       H   -11.71628  -10.27591   15.56638
       O   -12.50901   -9.79677   15.80569
      H1   -12.39956   -9.68056   16.78194
       H   -12.87965   -8.02367   19.18810
       O   -12.46550   -7.62791   18.42233
      H1   -13.16696   -7.29776   17.87952
       H    -6.42326  -14.40753   13.63611
       O    -7.00711  -14.77730   14.30728
      H1    -7.86038  -14.91851   13.80967
       H   -10.58542   -7.41377   12.59676
       O   -10.37181   -6.81002   13.35116
      H1    -9.89664   -7.55411   13.83158
       H   -11.65343  -12.80129   14.68905
       O   -11.48389  -12.06679   14.11911
      H1   -11.40776  -12.46026   13.26903
       H   -15.42707  -15.34367   12.75959
       O   -14.67646  -14.76182   13.02879
      H1   -15.13105  -13.89998   12.80822
       H   -12.00244  -13.70942   17.38529
       O   -12.19499  -14.10586   16.51586
      H1   -11.33045  -14.56028   16.38294
       H   -14.93600   -5.68436   14.38996
       O   -14.05682   -5.89528   14.04681
      H1   -13.49207   -6.25743   14.72916
       H    -8.53830  -10.51327   17.67615
       O    -8.72905  -11.37134   17.28070
      H1    -9.25656  -11.75628   17.98410
       H    -2.31450  -11.12591   19.08359
       O    -2.85952  -11.88927   19.30935
      H1    -2.26947  -12.63962   19.30416
       H    -3.74995  -15.73975   13.51149
       O    -3.93199  -16.67730   13.29659
      H1    -4.87557  -16.66834   13.41545
       H    -6.78611  -14.46025   19.85022
       O    -7.36072  -13.74033   19.57125
      H1    -6.80182  -13.27934   18.90140
       H   -11.43338   -6.69891   15.00091
       O   -12.12613   -7.01975   15.56087
      H1   -12.03770   -8.04561   15.47804
       H   -15.52080   -8.35368   20.11763
       O   -15.43750   -8.25143   19.19614
      H1   -16.33492   -8.01704   19.02111
       H   -11.54966   -8.71132   11.04383
       O   -11.30692   -9.33422   11.67357
      H1   -12.11055   -9.81030   11.94692
       H    -6.16054  -19.14594   17.54124
       O    -6.83931  -19.66160   18.00491
      H1    -7.31195  -19.00148   18.58803
       H   -15.20263  -16.43689   19.25410
       O   -15.78017  -16.71171   18.54102
      H1   -15.30020  -17.18569   17.87486
       H   -13.89292  -10.81972   15.21040
       O   -14.84928  -11.05802   15.19036
      H1   -14.76932  -11.99815   15.04616
       H    -5.78146   -8.51649   18.39178
       O    -6.11756   -7.60353   18.31453
      H1    -6.09946   -7.52897   17.31182
       H    -9.10365  -14.73655   16.05243
       O    -9.85532  -15.26919   16.26054
      H1    -9.64995  -15.96870   15.64610
       H   -14.85697  -14.24592   14.86596
       O   -14.65419  -13.75231   15.69321
      H1   -13.69044  -14.02027   15.83635
       H    -8.46089  -11.12473   15.65394
       O    -8.61669  -11.23887   14.69197
      H1    -9.48260  -11.67517   14.72378
       H   -12.13269  -13.83364   11.32101
       O   -11.21012  -13.70706   11.64777
      H1   -10.81158  -13.11779   11.00127
       H    -6.52817  -18.18765   13.79969
       O    -6.52192  -18.05200   14.75032
      H1    -5.90329  -18.74336   14.98280
       H    -7.90114   -8.43640   19.04304
       O    -8.63922   -9.00940   18.86261
      H1    -9.07775   -9.22196   19.68077
       H    -5.65550  -15.65590   15.90952
       O    -5.12780  -15.46828   16.74135
      H1    -4.75611  -16.27497   17.07947
       H   -15.74001   -6.07073   16.01403
       O   -15.32651   -6.88178   16.36594
      H1   -15.90182   -7.62437   16.05038
       H   -11.50464  -17.69156   12.85349
       O   -12.03457  -18.39191   12.51191
      H1   -11.36735  -19.17280   12.55571
       H    -8.83891   -5.16118   13.50711
       O    -8.35622   -4.30845   13.41451
      H1    -7.90809   -4.20412   14.22862
       H    -9.11775   -6.33365   17.55516
       O    -8.71601   -5.79034   18.19805
      H1    -7.82201   -6.14094   18.26920

