180
frame 5 | Written by MDAnalysis XYZWriter (release 2.4.3)
       H     6.31943   -1.26422    7.06201
       O     5.84422   -2.13139    7.02836
      H1     5.74780   -2.28034    7.96345
       H    -3.65755    4.25493    5.30810
       O    -3.19523    4.67495    4.52785
      H1    -3.69338    5.50304    4.43463
       H     0.77477   -1.13264    6.07495
       O     0.46741   -0.88217    5.20292
      H1    -0.44283   -1.17507    5.21730
       H    -1.49726    1.55762   14.20725
       O    -1.30290    2.50965   14.25945
      H1    -1.02088    2.60919   13.33842
       H    -0.46740    5.92611    6.83475
       O     0.00925    5.12859    7.11763
      H1     0.98895    5.37971    6.89286
       H    -0.43899   -3.05479    6.76826
       O    -0.08096   -3.90030    6.69704
      H1     0.82694   -3.84962    7.06165
       H     6.62692    2.93850   12.32311
       O     6.35737    2.21285   11.70398
      H1     5.39634    2.25940   11.67097
       H    -2.59573   -2.56515    9.27656
       O    -2.84833   -3.51006    9.31205
      H1    -3.05965   -3.65550    8.36543
       H     1.58104    1.44014    7.30676
       O     1.54105    1.40554    8.28259
      H1     1.60052    2.33797    8.56584
       H     6.55470    2.65223    4.32606
       O     6.73418    1.94722    3.67853
      H1     7.56468    1.58470    4.06073
       H     3.79692   -1.09246   13.86708
       O     3.93386   -0.35075   14.48443
      H1     3.31469   -0.41178   15.26305
       H     3.96260    5.59821   10.23187
       O     4.89656    5.21403   10.13809
      H1     4.68467    4.74486    9.32815
       H    -0.27401    3.88023    9.33107
       O    -1.03349    3.87959    9.93476
      H1    -0.93301    4.73576   10.34004
       H     1.39253    4.49193    8.21007
       O     2.06858    4.01152    8.65091
      H1     1.98341    4.35222    9.59470
       H    -3.82764    5.17081    8.15733
       O    -3.73875    5.15028    7.18085
      H1    -2.91756    4.63642    7.18017
       H     7.05942    0.54493    9.95557
       O     7.32179   -0.16591   10.57350
      H1     6.85023    0.12969   11.35922
       H     4.90679    2.59702    7.78119
       O     4.67111    3.52626    7.90664
      H1     3.74534    3.62274    8.18701
       H    -1.25359   -3.96641   10.10355
       O    -0.54054   -4.20909   10.74195
      H1    -0.16449   -5.06134   10.49620
       H     0.02052   -0.58924    7.75870
       O    -0.90507   -0.74589    7.58961
      H1    -1.35269   -0.52593    8.40139
       H     1.09025    0.88654   10.91675
       O     1.62992    0.13216   10.81686
      H1     1.89112    0.22230    9.85874
       H     1.07346    0.66395    5.44368
       O     1.47051    1.52857    5.65424
      H1     2.43106    1.33583    5.59124
       H    -4.13820    3.07436   11.43133
       O    -4.72702    3.45167   10.75587
      H1    -5.49618    2.89590   10.98532
       H     1.81333    6.30792   11.54707
       O     2.09257    5.56601   11.00928
      H1     1.89888    4.84803   11.56267
       H     3.45546   -3.01488    3.91919
       O     2.79532   -2.33851    4.02650
      H1     2.01913   -2.90454    4.22630
       H     5.83146   -1.76894    5.14083
       O     6.28167   -1.68398    4.25942
      H1     7.00512   -2.35008    4.36486
       H    -1.53911    6.54922   10.28513
       O    -0.85727    6.56529   10.95021
      H1    -0.42231    7.40095   10.79311
       H     0.76598   -1.92284   13.25768
       O    -0.17436   -2.07172   13.05216
      H1    -0.10776   -2.42451   12.12622
       H    -2.45011   -1.53541    3.66125
       O    -1.98084   -2.22829    4.17466
      H1    -1.79863   -2.94012    3.53375
       H     3.24329    4.24972    2.28613
       O     3.87891    4.95392    2.40918
      H1     3.81369    4.96371    3.39342
       H    -1.84047    2.29989    7.62535
       O    -1.91109    2.79965    6.81068
      H1    -1.05394    3.25434    6.77878
       H     5.25944    1.23596    6.26973
       O     5.76580    1.00856    7.11622
      H1     6.56965    1.53658    7.01597
       H     1.32933    2.69887    4.16362
       O     1.30999    3.46792    3.58954
      H1     1.66502    3.13594    2.73531
       H    -4.78565   -1.10590    7.32239
       O    -5.61892   -0.65121    7.17583
      H1    -5.39560    0.26158    7.13602
       H    -0.65895    4.42846    2.79241
       O    -1.46010    4.96758    2.58178
      H1    -1.99771    4.77070    3.41367
       H     3.95551   -4.92518    7.26031
       O     3.00368   -4.94146    7.19556
      H1     2.88586   -5.91640    7.18750
       H     2.90248   -2.59948   11.64138
       O     2.85421   -1.75808   12.15827
      H1     2.26679   -1.19797   11.55697
       H    -1.27258   -0.76029   13.96865
       O    -1.82433   -0.04010   14.32942
      H1    -1.88967   -0.21862   15.25929
       H     0.02999   -0.12970    1.57848
       O     0.86354   -0.10275    2.09736
      H1     0.49004   -0.53514    2.85822
       H     1.82189    5.14307    5.07616
       O     2.34807    5.49832    5.79949
      H1     2.08455    6.43851    5.82838
       H     1.52344   -4.21133   10.03081
       O     2.38008   -3.77354    9.82762
      H1     2.62965   -4.22751    9.00935
       H    -2.49645    0.78701    3.94847
       O    -2.87622    0.27452    3.26191
      H1    -3.77443    0.35851    3.43863
       H     3.90689    1.00552   13.30964
       O     3.75060    1.34030   12.40890
      H1     3.25429    0.61367   12.02487
       H     0.60180    2.23965   12.06744
       O    -0.20030    1.92175   11.58482
      H1    -0.51384    2.62850   10.93890
       H     3.20318   -2.13304    7.07538
       O     2.33051   -1.74408    6.92130
      H1     2.25957   -1.81767    5.89639
       H     5.20639    8.81013    7.07843
       O     4.64793    8.12357    7.54981
      H1     5.01631    7.36324    7.07844
       H    -1.44410    5.33866   13.80941
       O    -0.58062    5.56525   13.50765
      H1    -0.78622    5.77889   12.63141
       H    -2.96136    0.23081    9.57837
       O    -2.25090   -0.42177    9.77086
      H1    -1.96195    0.06469   10.56621
       H    -2.35335    7.09569    6.84170
       O    -1.35775    7.23357    6.62928
      H1    -1.27402    7.98846    6.02573
       H     3.30439   -1.38685    2.61717
       O     3.44895   -0.63682    2.02157
      H1     2.51504   -0.24998    2.06643
       H    -3.49732   -3.95528    6.47453
       O    -3.21114   -3.00944    6.63078
      H1    -2.79772   -2.89975    5.71035
       H     0.25822   -3.92496    4.92294
       O     0.92657   -4.22232    4.30814
      H1     0.49295   -4.42358    3.54694
       H     5.18242    7.19687    4.42335
       O     4.29007    7.47774    4.71189
      H1     3.84113    6.63682    4.80170
       H     4.62284    3.77351    5.98015
       O     5.07412    3.86126    5.09782
      H1     5.92691    4.33616    5.38156
       H     7.45098    4.03907    9.04488
       O     7.42197    4.98331    9.21889
      H1     6.49374    5.12131    9.46010
       H     2.40777    2.52947   12.45745
       O     1.73872    3.27052   12.54497
      H1     2.02571    3.66053   13.36808
       H    -4.24562    2.16017    9.84731
       O    -3.90989    1.60672    9.14846
      H1    -3.99490    2.24364    8.43497
       H     5.27765   -2.57038   10.81296
       O     5.51271   -2.18794    9.90984
      H1     5.98838   -1.31454   10.07338
       H     3.82809   -5.10672   11.62169
       O     4.61226   -4.85706   11.05383
      H1     4.03783   -4.56874   10.29035
       H     5.03986    1.20267    4.12588
       O     4.33290    0.76813    4.61309
      H1     3.86148    0.45954    3.79917
       H     8.72186    1.85787    7.98502
       O     8.17565    2.60611    7.73230
      H1     8.84789    3.27506    7.69042

