180
frame 6 | Written by MDAnalysis XYZWriter (release 2.4.3)
       H     2.93824   11.91537   19.56620
       O     2.39479   12.59267   19.10456
      H1     3.07907   13.20052   18.76965
       H     0.22288   15.92804   16.37282
       O     0.39044   15.16229   17.00569
      H1    -0.46986   14.99241   17.39226
       H    -4.98762   16.33453   19.32826
       O    -5.88933   16.76277   19.34300
      H1    -5.78114   17.75578   19.38650
       H    -8.73986   15.65568   17.83641
       O    -9.57712   16.11780   18.06844
      H1   -10.14069   15.92167   17.30948
       H     3.87497   16.98064   15.47929
       O     4.74743   17.21781   15.70331
      H1     4.89960   18.06466   15.21033
       H    -0.78915   11.35286   11.07333
       O    -0.30391   10.95555   10.34720
      H1    -0.24867   10.04179   10.67780
       H    -8.67895   15.48311   14.21088
       O    -9.29267   16.19069   14.48175
      H1    -9.51138   16.57566   13.61941
       H    -2.85685   12.14284   11.61377
       O    -2.17273   11.85209   12.18332
      H1    -1.85952   12.64583   12.58850
       H     2.63723   10.57806   14.70073
       O     2.35316   11.30073   14.06762
      H1     1.40577   11.34073   14.31684
       H    -2.51915    9.19114   19.41931
       O    -3.23106    9.49690   18.81867
      H1    -2.93361    9.31526   17.96732
       H    -4.34349   17.36785   10.04563
       O    -4.75294   16.98771   10.84806
      H1    -4.02699   16.75389   11.35453
       H    -0.36650   19.34927   19.49039
       O    -0.60854   18.62589   18.88250
      H1     0.15374   18.07023   18.92554
       H    -4.33832   14.95416   13.48381
       O    -3.99198   14.49054   12.69810
      H1    -3.09167   14.73757   12.84741
       H    -1.47066   17.01374   14.54993
       O    -0.61426   16.58995   14.77887
      H1    -0.74464   15.65099   14.60467
       H   -12.69475   17.80316   19.08791
       O   -12.13487   18.24546   18.36801
      H1   -11.58971   17.54043   18.04773
       H    -3.15785   11.09887   18.13763
       O    -2.74259   11.97798   17.92535
      H1    -2.39338   11.94033   17.02627
       H    -8.81613   12.22519   12.44305
       O    -9.60343   12.77030   12.75842
      H1    -9.62255   12.38268   13.62085
       H     4.09657   18.49381   12.62850
       O     5.05076   18.56378   12.40125
      H1     5.16739   18.25664   11.46623
       H    -6.34944   10.13076   15.82714
       O    -6.38754    9.44375   16.50692
      H1    -6.40942    8.73009   15.84550
       H     1.36413   17.24257   14.27605
       O     2.22629   17.12250   13.90732
      H1     2.11468   16.16062   13.77474
       H    -7.90355   10.34321   19.22425
       O    -7.22898    9.59845   19.19774
      H1    -7.01981    9.61232   18.25122
       H    -8.89845   18.97320   18.36470
       O    -8.80340   18.97881   17.38417
      H1    -8.85959   18.06095   17.11531
       H    -6.55318   15.05312   10.46332
       O    -7.23516   14.44141   10.13731
      H1    -7.28699   14.82799    9.26237
       H    -6.71298   15.93776   18.03075
       O    -7.00190   15.40868   17.29563
      H1    -6.68914   15.85248   16.50691
       H    -7.59135   14.80739   13.11270
       O    -7.62616   14.14103   13.79790
      H1    -8.44802   13.57843   13.51767
       H   -11.01045   16.28301   11.44222
       O   -10.75646   17.02810   12.02181
      H1   -11.46505   17.02210   12.70365
       H    -0.21968   10.73655   15.50262
       O    -0.23295   10.13941   14.76497
      H1    -0.02499    9.31137   15.21731
       H    -2.36236   14.36866   15.03160
       O    -1.73155   13.85063   14.50149
      H1    -2.18259   12.95972   14.50014
       H    -1.34640   17.45471   11.79028
       O    -2.08769   17.00370   12.19648
      H1    -2.27511   17.62980   12.89912
       H    -7.73458   11.31837   10.99663
       O    -7.40837   11.61602   11.84275
      H1    -7.11133   12.52953   11.70369
       H    -4.43721   14.92734   15.78283
       O    -3.69818   15.44741   15.35330
      H1    -3.63220   16.26779   15.85415
       H   -12.09523   15.71787   16.04276
       O   -11.37080   16.38046   16.19809
      H1   -10.80913   16.26634   15.41294
       H     1.80349   14.28502   11.31584
       O     1.72794   15.12061   11.84649
      H1     0.82077   14.97589   12.07889
       H    -5.80532   10.82650   12.20097
       O    -5.06844   10.30687   12.57579
      H1    -4.23251   10.80039   12.48351
       H     1.03334   16.24156   18.27295
       O     1.37717   17.03662   18.83145
      H1     2.00553   17.48127   18.19618
       H    -3.84956   13.18183    9.86593
       O    -4.48375   12.78128   10.45945
      H1    -4.45898   13.22443   11.30668
       H    -5.88344   12.46758   15.18199
       O    -5.57142   11.55806   14.95893
      H1    -5.72243   11.53234   13.97838
       H    -7.18424   17.25049   12.72710
       O    -7.29720   16.42995   12.26947
      H1    -7.56647   16.71104   11.41105
       H    -1.95990   13.38481    8.90108
       O    -1.96085   14.28875    9.18542
      H1    -1.25177   14.81402    8.76177
       H    -4.60026   17.72370    7.66657
       O    -3.93787   18.05751    8.26482
      H1    -3.92445   18.97664    7.98371
       H     4.17634   15.63209   12.93685
       O     5.08992   15.80591   13.29531
      H1     5.22649   16.68478   12.95401
       H     4.13325   15.30659   18.90861
       O     4.47569   14.53444   18.46712
      H1     5.10568   14.85012   17.82756
       H    -5.70917   13.92133   17.29478
       O    -5.05608   13.46797   16.74003
      H1    -4.51072   12.94891   17.31814
       H     1.03269   17.87266   10.17722
       O     0.62169   17.17670   10.69006
      H1     1.31012   16.56223   10.93176
       H     5.42505   15.34494   15.38636
       O     5.53368   14.50889   15.89204
      H1     6.53080   14.50512   15.81776
       H    -1.17436   14.49821   10.85990
       O    -0.90254   14.53492   11.79895
      H1    -1.24813   15.36902   12.11779
       H     3.75639   18.51645   17.11098
       O     2.98675   18.77411   17.63504
      H1     2.76866   19.51938   17.03223
       H     0.18805   16.24560    8.94024
       O    -0.23966   16.07840    8.12313
      H1     0.41116   15.69562    7.58947
       H    -6.94281   19.74204   16.88189
       O    -6.09948   19.77033   16.41149
      H1    -5.55514   19.01645   16.68435
       H    -6.60899   18.77375   14.68542
       O    -7.26398   18.46015   14.04945
      H1    -7.82892   17.91883   14.61369
       H     3.41467   12.34361   15.80593
       O     4.03656   12.08383   16.49987
      H1     4.65436   12.83915   16.46728
       H     1.46268   11.86755   17.29843
       O     0.64354   12.13464   16.84921
      H1     0.58099   13.07118   16.99377
       H    -1.40743   19.25169   15.21545
       O    -2.16156   18.77944   14.82299
      H1    -2.67650   19.51802   14.46656
       H    -3.79740   11.22165   14.86794
       O    -2.81560   11.23063   14.89966
      H1    -2.59250   10.87340   14.06668
       H    -3.28201    9.75360   15.54866
       O    -3.74642    9.04872   16.10948
      H1    -4.65363    9.40244   16.14136
       H    -7.22142   18.96211   11.95211
       O    -6.72306   19.03583   11.10977
      H1    -6.02797   18.34598   11.23742
       H   -11.00914   19.43812   15.16207
       O   -11.77555   18.91348   15.16476
      H1   -11.49483   18.27109   15.81114
       H    -2.08621   17.54359   18.95550
       O    -2.81528   16.90569   18.83470
      H1    -2.26903   16.13637   19.07635
       H    -3.92326   17.43617   17.70531
       O    -4.16449   17.82732   16.83462
      H1    -3.20821   18.01199   16.52605
       H   -10.50041   13.47274   19.51774
       O   -10.71904   12.69440   19.04327
      H1   -11.56031   13.02186   18.57616

