180
frame 2 | Written by MDAnalysis XYZWriter (release 2.4.3)
       H   -13.18291    0.35793  -10.81007
       O   -12.89189    1.23665  -10.46113
      H1   -13.12770    1.98520  -11.05661
       H    -6.77236    2.45755   -5.19797
       O    -7.38091    3.20915   -5.20370
      H1    -7.19736    3.65652   -6.03236
       H   -12.30570    4.38453  -11.28707
       O   -12.75223    3.67020  -11.83690
      H1   -13.61875    4.05255  -12.12180
       H   -15.02017   -4.58763   -3.69901
       O   -15.06316   -3.90459   -2.98086
      H1   -14.97907   -4.39496   -2.16563
       H   -13.15051    4.92702   -8.02586
       O   -13.86434    4.93473   -7.35443
      H1   -14.55558    5.25812   -7.96077
       H    -7.85802    0.65116   -9.33289
       O    -8.32493   -0.17271   -9.57847
      H1    -8.89817   -0.30107   -8.81950
       H   -14.28266    0.46057   -7.59885
       O   -13.75683    1.23916   -7.77379
      H1   -13.49775    1.18315   -8.70680
       H   -10.97849   -5.51383   -4.25694
       O   -11.47311   -4.91277   -4.79805
      H1   -11.05941   -5.07637   -5.67320
       H    -6.25807   -2.21803   -9.98441
       O    -6.92451   -2.28193  -10.71261
      H1    -7.55551   -1.62282  -10.43180
       H   -11.20776   -2.85722   -0.54424
       O   -11.09264   -1.98883   -0.96224
      H1   -10.30180   -1.63739   -0.53717
       H   -11.61870    1.24663   -3.81371
       O   -11.50875    0.67339   -3.03434
      H1   -10.71228    0.17978   -3.40712
       H    -3.49233    0.03619   -5.18778
       O    -3.04515   -0.69237   -4.72633
      H1    -2.13873   -0.36467   -4.64113
       H   -13.83090    0.62113   -2.03755
       O   -14.75752    0.59238   -1.90926
      H1   -14.88669    0.74676   -0.97643
       H   -13.16051   -3.83958   -8.49582
       O   -12.76593   -2.93475   -8.61559
      H1   -12.60180   -2.76808   -7.68059
       H    -6.07568    4.38746   -2.40360
       O    -5.79469    3.67038   -2.96593
      H1    -6.21551    3.91832   -3.79910
       H   -15.13402   -4.86883   -8.22596
       O   -15.98105   -4.65289   -7.74093
      H1   -16.04457   -3.70676   -7.78580
       H    -8.95224   -4.44601  -10.57578
       O    -8.02581   -4.66814  -10.71377
      H1    -7.63858   -3.80315  -10.52516
       H   -13.67225    6.42050   -4.18631
       O   -13.29500    5.58702   -4.49345
      H1   -13.65721    5.67066   -5.33791
       H    -9.75979   -6.95498   -7.74273
       O    -9.58210   -6.19419   -7.18659
      H1    -9.61109   -6.63204   -6.28321
       H   -15.35052   -0.79338   -5.12730
       O   -15.02624   -1.03415   -5.98827
      H1   -14.06663   -1.28759   -5.75548
       H   -11.00662   -3.26668   -9.66431
       O   -10.54783   -3.35685  -10.57003
      H1   -11.17244   -4.01248  -10.95237
       H    -9.29078    0.73840  -10.84573
       O    -9.80308    1.40337  -11.33098
      H1   -10.65235    1.06330  -11.06253
       H   -12.83925    0.15648    0.15387
       O   -12.92105   -0.65672    0.64307
      H1   -12.32220   -1.15903    0.05925
       H    -8.57430   -2.32014  -13.65930
       O    -8.22067   -1.58281  -13.21904
      H1    -7.49304   -1.96447  -12.73180
       H   -15.67159   -1.32962  -10.36026
       O   -16.59504   -1.11306  -10.11360
      H1   -16.99868   -2.02492  -10.11966
       H   -10.67451   -1.74519   -3.98512
       O   -10.02073   -1.23343   -4.44628
      H1    -9.19966   -1.24056   -3.93741
       H    -3.54455   -2.31271   -4.99180
       O    -3.74930   -3.26162   -5.12317
      H1    -4.53554   -3.16279   -5.68755
       H   -16.53558   -1.45143   -8.37166
       O   -16.69246   -2.13093   -7.62611
      H1   -16.11522   -1.65168   -6.94321
       H    -7.63774   -0.10087   -2.91357
       O    -7.38735   -0.92654   -3.41169
      H1    -6.71786   -1.28890   -2.84862
       H   -13.42341   -1.61722  -11.30987
       O   -13.80600   -1.32817  -10.47811
      H1   -13.38626   -1.92959   -9.86786
       H   -12.58358    3.97079   -4.33341
       O   -12.06398    3.15627   -4.08688
      H1   -11.25983    3.38366   -4.52701
       H   -15.19924    2.42217   -6.68975
       O   -16.03785    2.66355   -6.36669
      H1   -15.96179    2.73243   -5.39774
       H   -10.27730   -0.14878   -6.50159
       O   -10.49386   -0.46877   -7.39494
      H1   -11.01017    0.33231   -7.60607
       H    -7.55769   -5.18920   -8.97550
       O    -7.31697   -5.17154   -8.06206
      H1    -8.16346   -5.23986   -7.60408
       H   -12.39949   -2.55030   -5.06254
       O   -12.43235   -2.39075   -6.00747
      H1   -11.63706   -1.86146   -6.27786
       H    -6.94521    2.25595   -2.53730
       O    -7.45996    1.63900   -1.97182
      H1    -6.82482    1.48528   -1.24743
       H    -4.28754    2.09983   -7.36008
       O    -4.38439    1.81465   -6.45077
      H1    -5.17820    1.24099   -6.51177
       H    -5.31408    4.24839   -6.94627
       O    -6.04041    4.45294   -7.53152
      H1    -5.64889    4.22310   -8.37171
       H   -10.61963    7.04093   -4.83103
       O    -9.86519    6.45253   -4.87032
      H1    -9.72781    6.16059   -3.94866
       H   -11.88343    1.73746   -1.50982
       O   -12.03655    2.28327   -0.72998
      H1   -11.36887    1.86636   -0.15366
       H    -8.27311    2.16553  -12.02559
       O    -7.45880    2.62038  -12.34011
      H1    -7.12635    2.00512  -13.03746
       H   -10.45751    2.95995   -8.96000
       O    -9.79137    3.49187   -9.45940
      H1    -9.81133    2.93636  -10.27297
       H    -4.88025   -1.06773   -1.91393
       O    -5.31407   -1.89264   -1.93864
      H1    -4.62731   -2.51577   -2.25088
       H    -8.41997    2.93737   -1.08349
       O    -8.74517    3.62943   -0.44985
      H1    -9.29543    4.21681   -0.98895
       H    -9.42792   -0.52140  -13.42655
       O   -10.16616    0.06783  -13.64711
      H1    -9.86608    0.88262  -13.24849
       H   -11.02860    5.03951   -9.47562
       O   -11.95499    5.33732   -9.60332
      H1   -11.76755    6.23662   -9.87904
       H   -10.83530    2.95887   -6.85264
       O   -11.20476    2.27899   -7.45163
      H1   -12.14938    2.49539   -7.30402
       H   -15.78001    2.05579   -2.92297
       O   -15.91186    2.83197   -3.40650
      H1   -16.87880    2.81889   -3.64173
       H   -14.62065   -4.93227   -6.12955
       O   -14.27224   -5.22086   -5.21923
      H1   -13.39839   -4.85483   -5.29499
       H    -6.95895    2.94722   -8.37693
       O    -7.32619    2.27625   -8.96113
      H1    -8.24783    2.55973   -9.06831
       H    -7.25365   -3.14350   -4.29354
       O    -7.64310   -3.68015   -4.98156
      H1    -8.45948   -3.16064   -5.13263
       H    -8.89156   -5.96061   -3.44934
       O    -8.13705   -6.14649   -4.05032
      H1    -8.06493   -5.20227   -4.36927
       H   -12.30082    3.93315   -1.01708
       O   -12.38479    4.77032   -1.51251
      H1   -12.38013    4.31993   -2.38903
       H    -4.19961   -1.80357  -10.00136
       O    -4.25918   -2.41646   -9.22640
      H1    -3.38049   -2.27228   -8.82557
       H   -12.53226   -2.04661   -2.41005
       O   -12.82732   -2.35436   -3.31719
      H1   -13.65387   -2.80353   -3.15522
       H   -14.16693   -5.56084   -9.76094
       O   -13.58177   -5.45737   -8.97303
      H1   -13.34294   -6.39639   -8.70731
       H    -4.80394    2.09500  -10.51557
       O    -4.87932    1.64056  -11.32658
      H1    -5.80472    1.79090  -11.57799
       H    -6.12861   -0.46290   -6.87385
       O    -6.51908    0.24556   -6.45258
      H1    -6.70337   -0.01897   -5.55656
       H    -8.98031    3.54138   -5.51070
       O    -9.86798    3.90547   -5.78547
      H1    -9.77864    4.88577   -5.73362
       H    -5.07313   -2.48766   -7.66373
       O    -5.60156   -2.30624   -6.85122
      H1    -6.28785   -2.96241   -6.88140

