180
frame 5 | Written by MDAnalysis XYZWriter (release 2.4.3)
       H   -19.75381    0.71975   -9.33734
       O   -19.15761    1.28699   -8.85483
      H1   -18.70802    0.67686   -8.25428
       H   -17.61661   -2.84183  -11.64874
       O   -17.22362   -2.84538  -12.56068
      H1   -17.16815   -3.81005  -12.74047
       H   -17.55252    0.86766  -15.02879
       O   -17.21802    1.26038  -14.17503
      H1   -17.06399    2.18831  -14.44152
       H   -11.40232    7.30159  -18.12207
       O   -10.65780    6.70184  -17.89906
      H1   -10.07045    6.97049  -18.60337
       H   -14.50024   12.31826  -12.72364
       O   -14.85555   12.09355  -11.88425
      H1   -15.42004   12.81431  -11.66958
       H   -15.64326    0.38086  -13.46292
       O   -15.09988   -0.04813  -12.79427
      H1   -14.26637   -0.29188  -13.19198
       H   -17.32396    4.03076   -9.83478
       O   -17.38146    3.23516  -10.32731
      H1   -17.81285    2.69387   -9.66761
       H    -8.79752   -0.48134  -15.96187
       O    -9.74382   -0.61331  -15.90124
      H1    -9.94897   -0.72669  -16.84442
       H   -14.54651    1.11478  -16.33313
       O   -15.05758    1.78561  -16.84461
      H1   -15.51652    2.20259  -16.07186
       H   -15.39038   -2.54671  -12.22233
       O   -14.50893   -2.96518  -11.97031
      H1   -14.77561   -3.86697  -11.76926
       H   -15.67100    6.37508  -17.44057
       O   -15.64911    5.37605  -17.31658
      H1   -14.80932    4.98985  -17.66778
       H   -17.60058    0.05534  -17.21613
       O   -17.79316   -0.49176  -16.39968
      H1   -17.21943   -1.25071  -16.42852
       H   -10.65593    4.47819  -18.87396
       O   -11.19886    3.73825  -19.14901
      H1   -12.03147    3.97804  -18.64693
       H   -18.81518    2.86484  -17.61987
       O   -19.28239    2.04101  -17.95519
      H1   -18.62266    1.56307  -18.53436
       H   -12.89404    7.74495  -16.55191
       O   -12.98646    8.05973  -17.44124
      H1   -13.22139    8.96697  -17.31504
       H   -15.10094    1.18128  -11.31863
       O   -15.24937    1.86949  -10.63632
      H1   -16.09830    2.37114  -10.69109
       H   -13.93605    9.02962   -9.15122
       O   -13.34986    8.87200   -9.88392
      H1   -12.68535    9.62006   -9.89368
       H   -12.02117    2.25770  -10.77623
       O   -12.06610    1.30845  -10.51071
      H1   -11.21278    0.92330  -10.79144
       H   -10.73565    6.73995  -12.04843
       O   -10.42919    7.01103  -12.93574
      H1    -9.77668    6.32901  -13.15541
       H   -19.05289    7.19648  -15.82157
       O   -18.81112    7.04654  -16.72392
      H1   -18.77760    6.10813  -16.89846
       H   -13.14916   -2.35277  -12.87520
       O   -12.33389   -2.01395  -13.31116
      H1   -12.58285   -1.28367  -13.88864
       H   -15.85344   10.62182  -18.69725
       O   -16.67844   10.42273  -18.28219
      H1   -16.41310    9.64830  -17.70349
       H   -12.61842    5.16783  -10.59727
       O   -12.61692    4.31829  -11.13850
      H1   -13.32415    4.43511  -11.77283
       H   -17.48620   12.08358  -13.39739
       O   -17.80025   11.24488  -13.71410
      H1   -17.77539   10.66914  -12.93799
       H   -16.94787    6.32722  -12.78649
       O   -16.24900    6.18662  -12.13461
      H1   -15.47366    6.72274  -12.29327
       H   -14.90756    6.81871   -7.43924
       O   -15.71356    7.41094   -7.42184
      H1   -16.24723    6.90268   -8.08538
       H   -12.68114   13.41228  -14.17372
       O   -13.55365   12.95569  -14.25244
      H1   -13.69662   12.76793  -15.20587
       H   -15.84656   -0.66796  -18.85666
       O   -15.17919   -1.00388  -19.45100
      H1   -14.59297   -1.36126  -18.73591
       H   -11.29792    3.90651  -12.30130
       O   -10.56789    3.40237  -12.71257
      H1   -10.02069    4.14054  -13.14525
       H   -19.45485    8.78124  -17.56071
       O   -19.88552    9.54107  -17.96111
      H1   -19.08899    9.98732  -18.39940
       H   -10.05217   10.07557  -14.23715
       O   -10.42130    9.66048  -15.03043
      H1   -11.18373    9.15393  -14.73035
       H   -20.08667   -1.35672  -12.49823
       O   -19.78913   -1.68487  -13.32469
      H1   -18.88025   -1.84833  -13.11562
       H   -12.02252    7.44488  -10.16051
       O   -11.36067    6.75238  -10.43223
      H1   -11.08784    6.36338   -9.58179
       H   -16.27607   -4.59146  -18.83511
       O   -15.36225   -4.34461  -18.65218
      H1   -15.09190   -3.89264  -19.42004
       H   -17.02338    7.80845  -16.50531
       O   -16.17479    8.23541  -16.70692
      H1   -16.05084    8.72599  -15.83388
       H   -10.38533    3.10659  -17.60920
       O    -9.76753    2.96795  -16.89141
      H1   -10.43310    2.49181  -16.33742
       H   -18.21065    3.87365  -11.85736
       O   -18.95912    4.25839  -12.31304
      H1   -19.30687    3.43788  -12.74220
       H   -10.56859   11.03641  -16.83244
       O   -10.92981   11.07732  -17.74659
      H1   -11.90393   10.97765  -17.66566
       H   -15.05716    0.97597   -9.26817
       O   -15.17239    0.52037   -8.38577
      H1   -14.25431    0.53321   -8.00712
       H   -16.87070    6.27223  -10.30374
       O   -17.15804    6.12588   -9.37776
      H1   -18.08723    6.17311   -9.35251
       H   -15.13756   10.53503  -14.97504
       O   -15.67062    9.82053  -14.49539
      H1   -16.40915   10.33338  -14.14496
       H   -15.35098    4.75748  -12.38626
       O   -14.85788    3.95464  -12.68568
      H1   -15.01284    3.32470  -12.00642
       H   -16.56401   -3.25842  -15.70548
       O   -16.47563   -2.83347  -16.53338
      H1   -16.34454   -3.52141  -17.19453
       H   -10.54766    0.83485  -14.92080
       O   -11.11996    1.60733  -14.99191
      H1   -10.82236    2.17293  -14.24872
       H   -18.90334   12.44203  -16.62947
       O   -18.54832   12.61321  -17.53144
      H1   -18.00165   11.90176  -17.81488
       H    -6.98034    4.59293  -16.23460
       O    -7.34676    3.82890  -15.78466
      H1    -8.15012    3.52661  -16.31756
       H    -9.09290    8.17546  -14.95397
       O    -8.58252    7.47984  -15.38683
      H1    -9.17317    6.81798  -15.81962
       H   -14.65602   -3.22884  -16.18941
       O   -13.89723   -3.65816  -15.70057
      H1   -13.52506   -3.12282  -14.95589
       H   -11.88998   -1.80221  -17.46928
       O   -12.81452   -1.82901  -17.22688
      H1   -13.03288   -2.67423  -16.76897
       H   -13.99311    3.68210  -19.07695
       O   -13.79200    3.81640  -18.12500
      H1   -14.09030    3.02549  -17.69598
       H   -18.35336    4.54137  -16.10751
       O   -18.24594    4.37490  -17.02146
      H1   -17.38977    4.83046  -17.23466
       H   -12.84102   -0.67716  -15.64312
       O   -13.20106   -0.03545  -15.02599
      H1   -12.50475    0.67387  -15.02190
       H   -13.47013   13.41770  -17.87388
       O   -14.07807   13.19144  -17.15596
      H1   -14.99272   13.38498  -17.50287
       H   -13.84581   11.43114  -16.79963
       O   -13.45126   10.63943  -16.39603
      H1   -12.62935   10.93120  -15.97406
       H   -17.08571    9.72139  -11.04187
       O   -17.85393    9.52944  -11.60553
      H1   -18.65456    9.65074  -10.99153
       H   -13.13952    7.88223  -13.79714
       O   -12.45659    7.59560  -14.44392
      H1   -11.63789    7.37862  -13.92296
       H   -15.76508    4.38309  -15.88971
       O   -16.17212    3.94090  -15.13446
      H1   -15.67147    4.18911  -14.35993
       H   -14.06250    8.82914  -11.82499
       O   -14.50964    8.45926  -12.56926
      H1   -14.90157    9.19116  -13.08804
       H   -19.01942    7.15569  -13.43846
       O   -18.18467    7.57853  -13.61333
      H1   -18.02866    8.22762  -12.90842
       H   -16.24213   14.19257  -19.05580
       O   -16.43774   14.26126  -18.07253
      H1   -17.12299   13.63206  -17.90952

