180
frame 11 | Written by MDAnalysis XYZWriter (release 2.4.3)
       H    -2.86640    4.46842   11.37567
       O    -3.44940    3.68350   11.29839
      H1    -4.16864    3.84532   11.92134
       H    -7.66179    1.58704   11.73979
       O    -7.29505    0.80550   12.25876
      H1    -6.74335    1.33889   12.87055
       H    -4.05309   -3.22588   11.65053
       O    -4.29555   -2.42732   12.11349
      H1    -3.43486   -1.90233   12.10177
       H     2.98531   -1.84106   11.17108
       O     3.92193   -1.75170   11.47126
      H1     4.38960   -1.28515   10.77363
       H    -0.48304    3.30467   13.35976
       O    -0.98894    3.33768   14.18395
      H1    -0.32054    2.98204   14.81410
       H     2.15682   -0.13376   19.56191
       O     2.83991   -0.15108   18.84690
      H1     3.23377   -1.00184   19.08630
       H     2.28511   -6.14621   14.47129
       O     3.05591   -6.10386   15.03461
      H1     3.78360   -6.15079   14.37621
       H    -3.21151    2.18964   17.25311
       O    -3.56398    3.07841   17.47314
      H1    -3.05924    3.75925   16.96608
       H    -3.99614   -5.63893   11.56296
       O    -3.77907   -4.88404   10.99202
      H1    -4.35195   -4.99017   10.17880
       H    -6.59388   -4.44137   12.20987
       O    -6.70301   -4.44940   13.15346
      H1    -5.83541   -4.23585   13.60112
       H    -1.66926   -0.30665   12.60127
       O    -2.53545   -0.52318   13.00054
      H1    -2.85850    0.29144   13.32172
       H     0.96936   -7.56377   12.34184
       O     1.25283   -6.74223   12.81405
      H1     1.60069   -6.23787   12.08585
       H    -7.59628   -0.33426   15.66902
       O    -7.03356    0.34361   16.13726
      H1    -6.92679    0.95596   15.45399
       H    -8.43312   -3.63653   10.31904
       O    -7.50737   -3.87321   10.48547
      H1    -7.26108   -4.57820    9.81415
       H    -2.59026   -7.96694   10.53170
       O    -1.74277   -7.47893   10.29275
      H1    -1.87023   -6.56167    9.95655
       H     0.72259    1.68017   16.60343
       O     0.67319    2.59653   16.24778
      H1     0.12897    3.08981   16.89595
       H     1.97834   -1.13578    8.96351
       O     2.01548   -0.64037    9.77907
      H1     1.85858    0.26372    9.60558
       H    -6.17634   -8.29707   15.87749
       O    -6.42413   -7.33614   15.88475
      H1    -7.00412   -7.24481   15.14695
       H    -1.44490    1.13668   19.83186
       O    -1.15493    0.29005   19.45314
      H1    -1.05711    0.46017   18.49643
       H     1.45283   -3.09732   15.29643
       O     0.63235   -3.59456   15.27505
      H1    -0.13142   -3.01128   15.50650
       H    -0.53575   -6.89442   17.56399
       O    -1.05630   -7.70906   17.32627
      H1    -0.77128   -8.06558   16.48240
       H    -5.59735    5.23327   18.39446
       O    -5.53376    4.47373   18.96208
      H1    -4.98499    3.86241   18.40644
       H    -5.09846   -7.86377   17.99264
       O    -5.32270   -8.70925   18.35828
      H1    -5.96449   -9.10629   17.83224
       H    -0.57980   -3.50636   12.22551
       O     0.39223   -3.36990   12.38529
      H1     0.44371   -3.52399   13.35911
       H    -1.66166   -1.49506   14.53568
       O    -2.06580   -1.93938   15.29280
      H1    -3.05964   -2.04774   15.20397
       H     3.12155   -5.01142   11.05341
       O     2.16304   -5.19156   10.77063
      H1     1.66621   -4.50461   11.19890
       H     1.38004   -0.19057   15.60521
       O     1.02714   -0.07236   16.49930
      H1     1.50295   -0.66019   17.11234
       H    -3.22078   -1.57867   10.01516
       O    -2.30733   -1.42254    9.78284
      H1    -2.01945   -2.15136    9.21507
       H     2.75654   -6.46529   18.40439
       O     2.12506   -7.10836   18.64810
      H1     1.41592   -6.50743   18.90995
       H    -8.36282   -1.51933   18.91667
       O    -8.87981   -1.62091   18.14595
      H1    -8.93380   -0.87204   17.54788
       H    -4.51752   -2.76421   13.89993
       O    -4.55166   -3.19930   14.77453
      H1    -5.39517   -2.91365   15.14709
       H    -5.66354   -2.73584    9.25128
       O    -5.05685   -2.11034    8.91635
      H1    -5.36151   -1.25279    9.15976
       H    -7.87200   -5.43468   13.82017
       O    -8.49420   -6.13264   14.23202
      H1    -9.07613   -5.58571   14.76457
       H    -3.58771   -0.10987   17.09994
       O    -2.79276    0.30068   16.81176
      H1    -2.33215   -0.46224   16.38452
       H    -1.64210    5.60037   15.87347
       O    -2.41345    5.47729   16.37288
      H1    -2.53567    6.36471   16.68495
       H    -1.58879    3.28471   19.06237
       O    -0.69885    3.37187   18.66934
      H1    -0.23133    3.86326   19.34489
       H    -2.62875    0.84526    7.40183
       O    -2.10825    0.01488    7.35862
      H1    -2.23718   -0.38861    8.24068
       H     3.49060   -5.04983   16.87216
       O     3.79062   -5.20489   17.80366
      H1     4.76477   -5.28300   17.77345
       H    -5.93913   -5.49984    8.25506
       O    -5.91242   -5.72884    9.18433
      H1    -6.23165   -6.64375    9.25693
       H     2.49730    2.59755   16.33000
       O     3.46722    2.76571   16.33957
      H1     3.84771    2.48852   17.13867
       H    -4.40490   -9.49893   11.46160
       O    -4.24202   -8.68207   10.99402
      H1    -4.41156   -7.99978   11.66534
       H     4.37998   -3.12656   14.79152
       O     3.60462   -2.55747   14.85494
      H1     3.56530   -2.18517   13.93570
       H    -1.36559   -4.15553   18.02151
       O    -2.29291   -3.69778   17.98354
      H1    -2.29205   -3.38994   17.06201
       H    -9.69835   -3.03977   17.31528
       O   -10.02913   -3.96145   17.26171
      H1   -10.71436   -3.83781   16.63961
       H     0.50517   -4.73282   18.98042
       O     0.06841   -5.03061   18.17188
      H1     0.75279   -4.89884   17.52283
       H    -0.86652   -0.88327   10.87101
       O    -0.25347   -0.25918   11.40428
      H1     0.54293   -0.41098   10.91365
       H     0.89622    0.25967   13.07193
       O     1.56778    0.38822   13.76246
      H1     2.02750    1.23437   13.56062
       H    -8.75997   -5.31143   17.10558
       O    -8.18289   -5.99708   17.49881
      H1    -7.59442   -6.33800   16.81981
       H    -8.31224   -2.73572   15.13793
       O    -7.70422   -2.78106   15.92143
      H1    -8.17646   -2.39682   16.67942
       H    -6.54075   -4.80202   17.89964
       O    -5.98011   -4.00233   18.06728
      H1    -6.39584   -3.33427   17.51433
       H    -8.35260   -3.55442   13.12332
       O    -9.04719   -3.13077   13.68200
      H1    -9.66801   -2.62371   13.12959
       H    -3.57128   -6.84491   16.03568
       O    -3.38384   -7.25436   15.14752
      H1    -3.31171   -8.25170   15.22967
       H    -3.37863   -5.37093   17.59919
       O    -4.04131   -6.05267   17.48441
      H1    -4.83188   -5.58550   17.19687
       H    -2.52931    2.29712   14.32492
       O    -3.19818    1.58551   14.38122
      H1    -3.11104    1.23643   15.33262
       H    -6.84869   -0.02686    9.15424
       O    -6.19288    0.34050    9.71254
      H1    -6.49793    0.29415   10.63204
       H    -5.39879   -0.61058   18.57901
       O    -5.31162   -0.98237   17.66946
      H1    -6.02892   -0.51052   17.25628
       H    -4.99012    2.37648   14.40992
       O    -5.75474    2.72900   13.87976
      H1    -6.32733    3.21319   14.53237
       H    -1.83433    2.75361   11.53150
       O    -0.88079    2.67961   11.33070
      H1    -0.79134    1.83451   10.88844
       H    -5.11543   -6.07899   13.05477
       O    -4.81272   -7.00284   13.00015
      H1    -4.32456   -7.16231   13.80404
       H    -4.08203    2.62407   10.02066
       O    -4.10048    2.31288    9.11115
      H1    -4.71013    1.51159    9.11365

