180
frame 8 | Written by MDAnalysis XYZWriter (release 2.4.3)
       H    -3.03680    4.29697    5.44034
       O    -3.65956    4.67550    4.82927
      H1    -4.42944    5.06185    5.33268
       H    -6.33274    3.85651   10.49448
       O    -6.26090    3.92300   11.48390
      H1    -7.11495    3.52548   11.72929
       H    -5.61129    5.60550   11.25738
       O    -5.06140    6.39072   11.09688
      H1    -5.56287    7.05019   11.63456
       H   -10.85818    7.28662   14.53074
       O   -10.41711    7.75088   13.75882
      H1    -9.50366    7.75859   14.11093
       H   -12.66007    6.78898   11.71020
       O   -13.44729    6.68859   12.28292
      H1   -14.19575    6.87078   11.68395
       H    -0.93140    3.51599   10.06976
       O    -0.86876    4.10714   10.83931
      H1    -1.67047    4.63730   10.70319
       H    -6.03458    8.61995    7.72604
       O    -5.75798    9.51859    7.53159
      H1    -6.34893   10.06806    8.08058
       H    -0.87192    8.57879    6.35908
       O    -1.72470    8.57256    5.88934
      H1    -1.74631    7.70420    5.40028
       H    -4.89249    5.35044    9.13615
       O    -4.82325    4.67171    8.42953
      H1    -4.41328    3.91452    8.91332
       H    -4.20018   13.49298    5.61163
       O    -4.66056   12.62341    5.60265
      H1    -4.88878   12.46035    6.55645
       H   -12.91582    3.40004    6.30301
       O   -13.77972    2.99163    6.55454
      H1   -14.09187    2.68100    5.66354
       H    -8.66853   11.46457    8.66087
       O    -8.24202   10.63378    8.95887
      H1    -8.91321    9.95561    8.60348
       H    -3.21000    2.37097   10.80268
       O    -3.95329    2.87388   10.37115
      H1    -4.41474    3.14643   11.19686
       H    -9.05796    5.10474    9.04475
       O    -8.97943    5.97206    9.57594
      H1    -9.11343    5.65779   10.52940
       H   -11.17152    1.79876   11.58775
       O   -10.56020    1.76616   10.84086
      H1   -11.14186    2.17970   10.11441
       H    -9.96662    3.56555    7.33532
       O    -9.18279    3.69985    7.86329
      H1    -8.93599    2.77234    8.11371
       H    -7.38818    7.72484   14.12554
       O    -7.82357    7.66496   15.00250
      H1    -7.61308    6.80123   15.38513
       H    -7.40254    3.37285    7.26571
       O    -6.49691    2.94201    7.17987
      H1    -5.96682    3.76455    7.42453
       H   -11.83336    9.41052    7.87296
       O   -11.04099    9.10029    8.35783
      H1   -10.65014    8.42155    7.77297
       H   -11.90939    0.80486    8.15240
       O   -12.18688    1.72369    8.37650
      H1   -12.94456    1.96131    7.83807
       H    -6.69103    5.94684    4.81910
       O    -5.93774    6.02207    5.41222
      H1    -5.50120    6.81067    5.07431
       H    -3.70405    8.44541    5.37830
       O    -4.41772    8.18056    4.75572
      H1    -5.08087    8.79002    5.07148
       H   -10.53504    6.64289    9.87045
       O   -11.44610    7.06021    9.91376
      H1   -11.37716    7.95793    9.43960
       H   -10.14076    5.54231    3.87172
       O    -9.59158    4.69601    3.84820
      H1    -9.78562    4.22706    3.00379
       H    -8.63350    1.84931    4.31815
       O    -9.42530    1.30733    4.10534
      H1    -9.41866    0.60382    4.75117
       H    -8.65621    9.14596    5.15401
       O    -9.54778    9.12268    4.81045
      H1    -9.85716    9.97295    5.12902
       H    -9.84303    6.04258   12.92026
       O    -9.33137    5.69165   12.18794
      H1    -8.69296    5.17319   12.71347
       H    -6.39824    9.88118    5.97243
       O    -6.91336    9.74058    5.10604
      H1    -7.01915   10.62632    4.71326
       H    -3.12978    6.71938   11.50535
       O    -2.41033    6.54303   12.09511
      H1    -1.71582    6.49327   11.44936
       H    -7.79939   11.68073   10.70104
       O    -7.42947   12.42460   11.21714
      H1    -7.92913   13.19167   10.88830
       H    -8.49734    2.59113   13.01601
       O    -8.31278    2.29480   12.14791
      H1    -9.26573    2.19453   11.81652
       H   -12.67662    6.34052    8.42360
       O   -13.48742    5.99015    8.08531
      H1   -13.35072    5.97145    7.14288
       H    -8.24389    5.81401    3.68084
       O    -7.50025    6.34575    3.35855
      H1    -6.88742    5.66177    3.09225
       H    -6.14401   13.15407    8.31430
       O    -5.53701   12.40416    8.23312
      H1    -5.34455   12.28532    9.16880
       H    -5.68555   10.86497   11.28356
       O    -5.90933    9.93992   11.11377
      H1    -5.03809    9.57955   10.98052
       H   -10.14389   12.19199    5.98133
       O   -10.47013   11.50069    5.38786
      H1   -10.53804   12.01046    4.57111
       H    -4.25927   -0.50407    6.30946
       O    -5.20319   -0.31208    6.32881
      H1    -5.24989    0.54721    5.89525
       H    -9.13665    1.16940    9.19548
       O    -8.30721    1.39152    8.72278
      H1    -7.67768    1.24496    9.43499
       H    -0.87282    5.53732    4.45033
       O    -1.49100    6.33185    4.37492
      H1    -2.34171    5.82283    4.36186
       H    -6.90831    6.74013    6.87232
       O    -7.41880    7.20604    7.50566
      H1    -7.60327    6.61273    8.20097
       H   -11.59198    1.83070    2.76224
       O   -11.52532    2.61308    3.36998
      H1   -10.75652    2.18146    3.82588
       H    -6.06792    1.40138   12.90764
       O    -5.53550    0.78689   12.30087
      H1    -6.04885    0.94178   11.48937
       H    -4.02686    5.69085   14.61259
       O    -4.42524    5.29913   13.81193
      H1    -3.98913    5.82815   13.13300
       H    -3.90693    3.04873    4.06269
       O    -3.98802    2.08232    3.96130
      H1    -4.97475    1.87921    4.14038
       H   -11.14905    4.21064    5.25485
       O   -11.41447    4.36669    6.16023
      H1   -10.99510    5.23069    6.28874
       H    -2.61240    9.59301    9.55567
       O    -3.45828    9.13194    9.79114
      H1    -3.95177    9.72609    9.23650
       H    -7.97890    6.74464    1.63995
       O    -7.75591    6.58224    0.71244
      H1    -7.93776    7.49332    0.33496
       H   -10.88053    7.79558    4.20919
       O   -10.93897    7.09793    3.55408
      H1   -11.86770    6.76006    3.80335
       H   -13.16007    4.57129    9.61582
       O   -13.19730    3.81757   10.17509
      H1   -13.06473    3.03278    9.59624
       H    -7.13298    8.48972   11.81898
       O    -7.34266    7.69240   12.31696
      H1    -7.98656    7.19929   11.78886
       H    -3.36336    5.79328    8.51743
       O    -2.56744    6.03043    8.99807
      H1    -2.65710    6.99768    8.97201
       H   -14.03510    7.62069    5.36613
       O   -13.52771    6.72986    5.18420
      H1   -14.25585    6.29455    4.73585
       H   -10.10926    7.90006    6.07579
       O   -10.20345    7.07378    6.66968
      H1    -9.28951    6.90177    6.90533
       H    -8.43555    0.31777    6.55810
       O    -8.58422   -0.43502    5.99066
      H1    -9.10372   -1.02801    6.55462
       H    -4.93286    1.51409    9.57169
       O    -5.57507    0.89449    9.28996
      H1    -5.90731    1.22274    8.42423
       H   -11.00206    8.96698   11.02278
       O   -11.24464    9.77445   11.45894
      H1   -11.01670    9.66648   12.43936
       H    -3.46877   11.49708    5.17473
       O    -2.55764   11.22028    4.99975
      H1    -2.43528   10.40850    5.42598
       H    -6.31209    3.65648    2.04688
       O    -6.01105    3.93667    2.90248
      H1    -5.07706    3.71547    2.74165
       H   -12.99035    9.88624   11.20562
       O   -13.77352   10.14751   10.68935
      H1   -13.56915    9.84304    9.82716
       H    -6.64310    2.56474    5.58126
       O    -6.77037    2.07518    4.73086
      H1    -6.84080    2.74199    4.01778

