180
frame 3 | Written by MDAnalysis XYZWriter (release 2.4.3)
       H   -13.25858    1.06491   -9.83493
       O   -12.65025    1.83284   -9.60932
      H1   -12.79773    2.48112  -10.34023
       H   -16.04268    6.05313   -4.34266
       O   -16.67228    5.99561   -3.59301
      H1   -16.13710    5.65778   -2.83807
       H    -6.63943    2.37438   -6.06264
       O    -6.72375    3.30790   -5.85225
      H1    -6.16118    3.66818   -6.54792
       H   -15.41608   -4.21119   -3.36495
       O   -15.39461   -3.47999   -2.74975
      H1   -14.95644   -3.91545   -1.98044
       H   -12.77106    5.07489   -8.55210
       O   -13.40653    5.29355   -7.84229
      H1   -13.78146    4.37663   -7.76916
       H   -17.06827    1.15390   -7.64700
       O   -17.97794    0.86206   -7.78492
      H1   -18.02410   -0.09223   -7.62585
       H    -7.98529    0.64066   -8.94778
       O    -8.55428   -0.13552   -8.99361
      H1    -8.91954   -0.43312   -8.12272
       H   -13.63038    1.13016   -6.76747
       O   -13.23218    1.94753   -7.00606
      H1   -12.99249    1.92793   -7.94415
       H   -11.27238   -5.00773   -4.87676
       O   -11.81204   -4.84157   -5.67551
      H1   -11.44755   -5.54054   -6.32395
       H   -11.29494   -2.69403   -0.19339
       O   -11.39076   -1.75925   -0.39657
      H1   -10.52673   -1.37843   -0.10516
       H   -12.21100    1.96604   -3.69457
       O   -12.14341    1.33977   -2.93325
      H1   -11.64658    0.56566   -3.32048
       H   -14.45479    1.26607    3.03156
       O   -14.32138    1.39585    4.00143
      H1   -14.03048    2.34167    3.97426
       H   -15.02464    3.56383    1.47535
       O   -14.72836    2.65682    1.33597
      H1   -15.48338    2.05725    1.13260
       H   -14.56537    1.52598   -1.41436
       O   -15.18143    2.24085   -1.60946
      H1   -14.79479    2.89358   -1.00639
       H   -13.33549   -3.29836   -8.99262
       O   -12.71694   -2.54114   -8.91120
      H1   -12.68766   -2.37440   -7.92665
       H    -5.89936    3.73357   -2.84084
       O    -5.54907    2.97127   -3.37274
      H1    -5.81499    3.10658   -4.31943
       H   -13.23823    6.74245   -5.09198
       O   -13.21919    5.77851   -5.06828
      H1   -13.28658    5.71623   -6.08133
       H   -12.77413   -4.45838    0.03213
       O   -11.87871   -4.57343   -0.29366
      H1   -11.54028   -5.07278    0.48102
       H   -15.76180   -0.07291   -5.30446
       O   -15.18251   -0.28934   -6.08253
      H1   -14.40436   -0.76202   -5.63984
       H    -7.25032    4.54212   -1.18971
       O    -6.25008    4.76982   -1.38551
      H1    -6.26413    5.77539   -1.30852
       H   -12.61595    1.20036    0.85635
       O   -12.73231    0.25502    1.02255
      H1   -12.38138   -0.13578    0.22256
       H   -10.83798    5.52256    2.72515
       O   -10.00403    5.25058    2.33498
      H1   -10.31680    4.39191    1.99930
       H    -9.48541   -1.28495    1.52239
       O    -9.17975   -0.61672    0.86714
      H1    -8.22836   -0.92767    0.76416
       H   -17.42581    0.88149    0.27787
       O   -16.89924    0.96327    1.09493
      H1   -16.50702    0.05153    1.02973
       H   -10.96534   -2.33541   -3.53353
       O   -10.23581   -1.93708   -4.06550
      H1    -9.38685   -2.22438   -3.71066
       H   -15.28917   -4.54662    0.35256
       O   -14.44844   -3.95894    0.27835
      H1   -14.87283   -3.13978    0.47287
       H   -17.10000   -2.14679   -7.97200
       O   -16.80210   -2.26947   -7.05545
      H1   -16.17280   -1.50927   -7.01130
       H    -7.55558   -0.31565   -2.77808
       O    -7.49560   -1.07466   -3.42233
      H1    -6.80621   -1.59478   -2.95853
       H   -14.40628   -0.70918    1.56651
       O   -15.10201   -1.35437    1.61655
      H1   -14.72936   -1.86696    2.38528
       H   -14.12803   -0.70038  -10.84929
       O   -14.07210   -0.59029   -9.88011
      H1   -13.38172   -1.21230   -9.52699
       H   -12.29131    4.21744   -5.05853
       O   -11.71723    3.47304   -4.77662
      H1   -10.84901    3.92857   -4.89684
       H   -14.88187    2.14800   -6.93510
       O   -15.77926    2.56897   -6.91815
      H1   -15.66708    2.86299   -5.98465
       H    -9.99210   -1.07897   -5.98049
       O   -10.28423   -0.78954   -6.85178
      H1   -10.24733    0.19413   -6.96470
       H   -10.16026   -4.58601   -1.72047
       O    -9.43244   -5.04347   -2.13001
      H1    -9.05485   -5.49079   -1.36026
       H    -9.85898    0.93205    1.77417
       O   -10.07830    1.83500    2.14986
      H1    -9.32229    2.08407    2.73118
       H   -17.56470   -1.98605   -0.84383
       O   -17.16158   -1.54701   -1.63559
      H1   -16.39776   -2.13001   -1.81704
       H   -12.46029   -3.07731   -6.08423
       O   -12.62466   -2.11507   -6.26545
      H1   -11.72965   -1.72016   -6.20140
       H    -6.75198    1.67712   -2.52385
       O    -7.39576    1.11995   -2.04121
      H1    -6.87681    0.87307   -1.24917
       H   -15.67194    6.17335    1.26006
       O   -14.87635    5.93952    1.74074
      H1   -14.18359    6.21902    1.11720
       H   -10.37683    6.75563   -4.80102
       O    -9.44228    6.56394   -4.74296
      H1    -9.36120    6.27805   -3.78830
       H   -11.09437    2.46876   -0.84391
       O   -11.50512    2.65427   -0.03118
      H1   -10.88470    2.43056    0.66265
       H    -9.71438    2.93100   -8.56409
       O    -9.61203    3.23834   -9.48319
      H1   -10.01101    2.51101   -9.98946
       H    -8.40867    2.57345   -1.27718
       O    -8.54183    3.49052   -0.93892
      H1    -8.96545    3.96224   -1.66994
       H   -12.17807   -2.44251    2.80579
       O   -11.46697   -1.71601    2.75370
      H1   -11.86024   -1.14070    2.10445
       H   -10.11071    2.62767   -6.34188
       O   -10.46187    1.99833   -7.02601
      H1   -11.40095    2.04617   -6.80974
       H   -15.07233    2.70624   -3.52388
       O   -15.40594    3.31929   -4.24129
      H1   -16.31888    3.46833   -4.00860
       H   -14.98581   -5.75586   -5.31219
       O   -14.51612   -5.17206   -4.73829
      H1   -13.57350   -5.12465   -5.11122
       H   -18.44276   -1.51118   -4.67164
       O   -18.03379   -0.72666   -4.23015
      H1   -17.64712   -1.05702   -3.38090
       H   -13.09104    7.69724   -0.38786
       O   -12.95609    7.27862    0.44877
      H1   -13.55912    7.76372    1.02951
       H   -13.87078   -5.75822   -3.23048
       O   -13.42680   -6.18713   -2.44879
      H1   -12.98722   -5.37689   -2.12528
       H    -9.27290   -3.17781   -5.41548
       O    -8.44689   -3.16300   -5.83365
      H1    -8.57823   -3.77766   -6.60605
       H    -5.39784    0.95232    0.76683
       O    -6.29141    0.85457    0.48778
      H1    -6.77430    1.29498    1.16729
       H   -12.21309    3.66253   -1.44855
       O   -11.94588    4.40694   -2.07376
      H1   -11.89795    3.88848   -2.92012
       H   -12.29525   -2.88059   -1.93918
       O   -12.47023   -3.00642   -2.83872
      H1   -13.42908   -2.79413   -2.86402
       H   -13.88921    5.30203   -2.16162
       O   -14.82702    5.00696   -1.94077
      H1   -15.09059    4.26550   -2.56300
       H   -18.76282   -0.14743   -1.26988
       O   -18.76294    0.77163   -0.93960
      H1   -19.69074    1.02914   -0.84710
       H   -10.34828    5.73721   -1.96919
       O    -9.36438    5.82925   -2.08017
      H1    -9.22483    6.70825   -1.78082
       H    -6.23004   -0.35816   -6.01204
       O    -6.26405    0.52261   -5.57544
      H1    -6.73005    0.23447   -4.70825
       H    -8.34350    3.84729   -5.41896
       O    -9.31512    4.02669   -5.66053
      H1    -9.23977    4.97703   -5.46418
       H    -6.00558   -2.41595   -7.46677
       O    -6.14670   -1.81648   -6.70451
      H1    -7.01161   -2.11349   -6.31543

