180
frame 10 | Written by MDAnalysis XYZWriter (release 2.4.3)
       H     7.42270   10.46547   12.56894
       O     7.22807    9.49202   12.60362
      H1     8.09221    9.02281   12.84807
       H    -1.94425    4.15671    6.35432
       O    -2.77611    3.66161    6.38544
      H1    -2.56647    3.02424    5.60394
       H     3.33080    8.62985   14.49130
       O     2.37379    8.48846   14.53901
      H1     2.23466    7.51895   14.27391
       H    10.37404   10.06063   10.66934
       O     9.76181    9.60069   11.30614
      H1     8.97926    9.63479   10.69849
       H     2.20061    0.97442    8.09193
       O     2.16958    0.71921    9.03336
      H1     2.44672    1.58434    9.41332
       H     9.60930    9.83255    5.28965
       O    10.02996    9.08031    5.63542
      H1     9.37669    8.32205    5.66024
       H     8.30456    3.07024    5.93049
       O     7.83821    2.26169    5.65665
      H1     7.96944    2.05658    4.75984
       H    -0.97698   10.11405   11.87289
       O    -0.46354   10.52932   11.16929
      H1     0.06886    9.80599   10.71114
       H     2.63515   10.38052   13.64512
       O     2.92025   11.32383   13.53388
      H1     2.39362   11.67814   14.27778
       H     6.22723    5.70601    9.61881
       O     6.66546    5.22039    8.89413
      H1     5.93252    4.95615    8.38392
       H     4.13710   11.38416   11.54718
       O     4.83786   11.18878   10.89721
      H1     4.52599   10.25996   10.70007
       H     3.32932    8.23135    9.84170
       O     3.66680    8.68187   10.58724
      H1     3.65285    7.94639   11.22534
       H    -0.17246    3.43976    9.55800
       O     0.23944    4.14702   10.07416
      H1    -0.46098    4.79756   10.28703
       H    -2.73012    8.53881    6.15072
       O    -2.43318    8.89387    5.29121
      H1    -2.33704    8.06325    4.80649
       H    -1.23049   10.79948    8.67075
       O    -2.08867   11.13542    9.06258
      H1    -1.80265   11.11828    9.97454
       H     2.00243    3.71501    9.69522
       O     2.90160    3.26127    9.78466
      H1     3.15485    3.65693   10.68618
       H     4.92935    2.68379    7.45800
       O     4.53255    3.58690    7.56491
      H1     3.83294    3.47884    8.27096
       H     5.98406    6.38796   11.91246
       O     5.27487    6.38772   11.24638
      H1     4.70820    5.64568   11.50560
       H     1.22862    1.75177    6.59923
       O     2.19457    1.71579    6.54500
      H1     2.37134    0.83739    6.20856
       H     2.99482    4.63646   12.77486
       O     3.62679    4.29077   12.10653
      H1     4.24459    3.74779   12.55049
       H     3.33335    7.49019    2.54881
       O     3.60919    8.19675    3.16958
      H1     2.75102    8.45562    3.53532
       H    -1.36328   10.05671    1.70375
       O    -1.53524   10.19784    2.62611
      H1    -0.91305    9.67586    3.11877
       H     8.85152    7.29227   11.26916
       O     8.46750    6.89442   12.10522
      H1     9.07555    7.23685   12.78626
       H     0.48402    9.35861    8.15521
       O     0.36369   10.33482    8.28383
      H1     0.95409   10.77541    7.67980
       H    -2.27436    8.59739   12.28272
       O    -1.44594    8.61312   12.79953
      H1    -0.84412    8.27092   12.17069
       H     5.03282    9.34665    7.59128
       O     4.38326    9.94347    7.34556
      H1     4.65568   10.07812    6.42902
       H     9.09696    5.33602    6.14912
       O     9.62211    4.53611    5.89739
      H1    10.32747    4.57834    6.48576
       H     7.91080    6.86564    3.67088
       O     7.26696    6.12729    3.53342
      H1     7.69108    5.52066    2.91806
       H     2.57131   11.79397    8.57557
       O     2.59133   12.70045    8.22541
      H1     2.20022   13.14392    9.03507
       H     0.53177    8.76848    2.29223
       O     0.39852    8.38069    3.17958
      H1     0.15610    7.51471    2.83308
       H     6.35140    1.23039    6.58643
       O     5.69454    1.16455    7.31716
      H1     6.22703    1.46116    8.10396
       H     2.71717    3.14970    3.93652
       O     2.11607    3.22303    3.19622
      H1     2.04075    2.36510    2.66923
       H     3.74071    6.33143    0.39206
       O     3.35571    5.94189    1.17104
      H1     3.72552    5.05475    1.24534
       H    -1.90250    5.82756    4.34823
       O    -2.58079    6.40533    3.97824
      H1    -3.31851    5.75918    4.28312
       H     9.88284   11.58198    7.79075
       O     9.17592   12.09662    7.26377
      H1     8.40893   11.53900    7.53491
       H     1.03145    4.95531    2.67026
       O     0.85799    5.85388    2.32441
      H1     1.70848    6.03199    1.87688
       H     0.26462    3.54409    4.50690
       O    -0.30126    4.24053    4.82092
      H1     0.31191    4.94858    5.10574
       H     4.61373   10.31535   13.93970
       O     4.84293    9.39840   14.06938
      H1     5.61301    9.24492   13.48205
       H     1.69190   13.31887   11.40683
       O     0.88675   13.02488   10.92035
      H1     0.70212   12.12092   11.20863
       H     4.16750   10.64005    4.36830
       O     4.97260   10.74827    4.87441
      H1     5.70101   10.44064    4.31430
       H     1.85672    2.66821   13.50323
       O     1.18555    2.54189   12.76172
      H1     1.41295    3.30784   12.24217
       H     0.05326    7.29366    8.03128
       O     0.70080    7.65948    8.66252
      H1     1.51446    7.25932    8.32827
       H     3.18740    8.12458    7.50571
       O     3.40923    7.21971    7.78500
      H1     3.97030    6.93274    7.00130
       H     5.38788   11.33329    7.64234
       O     6.10562   11.99377    7.88245
      H1     5.68599   12.81871    7.45085
       H     4.27019   14.93610    7.15266
       O     4.79270   14.30936    7.75056
      H1     4.06001   13.64345    7.92373
       H    -3.12901    5.69348    9.70658
       O    -2.18429    5.86664    9.80339
      H1    -2.23299    6.18046   10.69688
       H     7.51327    7.35727    6.57932
       O     8.04368    6.81451    6.01112
      H1     7.47123    6.52206    5.25508
       H     0.99027    5.66441   14.03477
       O     1.94322    5.75072   13.90375
      H1     2.29959    5.40689   14.76047
       H     6.71442    8.59882    8.68764
       O     6.49310    8.03298    7.93391
      H1     6.64632    7.19868    8.39135
       H     6.28589    3.85419   12.71503
       O     5.96866    3.00879   12.39353
      H1     6.43276    2.98564   11.52454
       H     2.18179    6.53496    5.73434
       O     1.43867    6.21266    5.20244
      H1     1.76468    6.43017    4.30408
       H     6.47068    7.68482    2.64880
       O     6.24395    8.64045    2.72821
      H1     5.31649    8.50202    2.83717
       H     6.79747   10.56284    9.43533
       O     7.30240    9.84384    9.91577
      H1     6.73074    9.83681   10.69786
       H     4.25932    2.57189    5.43341
       O     4.70665    2.81879    4.58039
      H1     5.63745    2.95581    4.86440
       H     7.66812    2.28345    9.37512
       O     6.78034    2.55080    9.58024
      H1     6.82314    3.48786    9.37557
       H     1.45535   10.23021    5.33652
       O     1.92096   11.01187    5.64072
      H1     1.21687   11.73186    5.57253
       H     4.72954    4.77257    5.64178
       O     5.10317    5.73382    5.68184
      H1     5.31817    5.82432    4.74320
       H     1.19493    6.90010   11.61686
       O     0.33582    7.22670   11.32821
      H1     0.55711    7.20659   10.34679
       H     5.81259    5.39083   14.29468
       O     6.43951    5.37883   13.54976
      H1     7.29250    5.23125   13.99955
       H     5.70836   11.90623    2.49470
       O     5.50883   12.70143    3.09677
      H1     5.45952   12.21366    4.00997

