180
frame 7 | Written by MDAnalysis XYZWriter (release 2.4.3)
       H    -7.58459  -14.29093   -1.97425
       O    -6.90707  -14.46424   -2.60334
      H1    -6.07891  -14.22766   -2.13061
       H    -3.10833   -5.40515    4.83944
       O    -3.98653   -4.95053    4.77384
      H1    -4.43111   -5.20696    5.61664
       H    -8.40413  -10.23029    7.11080
       O    -8.86459  -10.78706    7.75307
      H1    -8.42344  -10.51290    8.57816
       H    -1.33290  -14.28224    3.17693
       O    -1.54868  -13.87301    2.31631
      H1    -2.28341  -13.32880    2.63129
       H    -3.30614   -8.27456   -2.13700
       O    -2.50600   -7.91960   -2.46110
      H1    -2.79254   -7.04693   -2.82054
       H     1.88750  -14.41759    7.75944
       O     1.79111  -13.43209    7.62585
      H1     1.92160  -13.33173    6.70086
       H    -3.16831  -11.36437    6.02543
       O    -2.87728  -10.88433    5.22659
      H1    -2.99980   -9.97349    5.48030
       H    -0.39616  -14.71441    8.30103
       O    -1.23617  -14.92617    7.86316
      H1    -1.78020  -15.29108    8.58217
       H    -9.40571  -13.65051   -0.65384
       O    -8.84826  -12.90421   -0.23971
      H1    -9.16796  -13.04184    0.70398
       H    -8.03242  -12.89065    3.11243
       O    -8.71966  -13.55460    2.86710
      H1    -8.33707  -14.36502    3.17076
       H    -8.46052  -10.44213    0.97754
       O    -9.43927  -10.41394    1.22873
      H1    -9.55281   -9.64911    1.77787
       H    -5.13738  -15.61647    8.99052
       O    -5.56573  -16.31318    9.55762
      H1    -6.33617  -16.63486    9.01571
       H    -6.82727  -11.21072    2.25226
       O    -6.80614  -11.79041    3.05108
      H1    -6.79081  -11.12502    3.73342
       H   -11.18451  -14.18112    4.43912
       O   -10.76215  -13.40195    4.84573
      H1    -9.88280  -13.44696    4.42642
       H    -8.52227  -10.60808   -2.52811
       O    -7.96874  -11.35236   -2.83515
      H1    -8.26613  -12.04194   -2.21992
       H     0.81149  -12.10884    0.14287
       O     0.07293  -12.66841   -0.09109
      H1    -0.34136  -12.72767    0.75673
       H    -2.39568   -7.61679    4.96079
       O    -2.64053   -8.22290    5.71022
      H1    -2.31770   -7.82527    6.50076
       H    -0.95632  -10.91204    5.30920
       O    -0.11457  -10.61643    4.93005
      H1     0.08063   -9.97835    5.64016
       H    -5.20144  -16.82792    0.02501
       O    -5.73475  -17.46554   -0.50596
      H1    -5.58435  -17.10104   -1.43746
       H    -5.94978  -15.30069    2.77199
       O    -6.47312  -15.15800    3.60099
      H1    -5.97319  -15.70450    4.26779
       H    -3.61561  -17.56263    7.61539
       O    -3.54461  -17.64461    8.58054
      H1    -4.42930  -17.27962    8.85802
       H    -5.50196   -7.51426    7.13652
       O    -6.20258   -8.16333    7.04293
      H1    -6.82926   -7.86897    7.68931
       H    -6.07104   -6.15913    0.09849
       O    -6.69178   -6.86126    0.47747
      H1    -7.09326   -6.21954    1.13096
       H    -9.08549   -8.84479    4.11140
       O    -9.70547   -8.37928    3.54436
      H1   -10.58855   -8.43455    3.91036
       H    -2.86260  -18.20718    2.63108
       O    -3.34828  -17.60628    3.16988
      H1    -2.59140  -17.02982    3.47620
       H    -1.78135   -7.26209   -0.92558
       O    -1.05673   -6.86192   -0.50141
      H1    -1.55028   -6.16871   -0.06652
       H    -0.00191  -10.84051    8.43533
       O     0.68642  -10.23923    8.83996
      H1     1.38880  -10.90041    9.02589
       H    -3.04420  -12.84526    7.29969
       O    -3.90783  -12.91851    6.84739
      H1    -4.48416  -12.94413    7.61899
       H   -11.33901  -16.69616    4.55803
       O   -10.49473  -16.35645    4.19810
      H1   -10.02689  -16.76250    4.98795
       H    -2.97637  -14.69718   10.37791
       O    -3.66123  -14.29136    9.83376
      H1    -4.16851  -13.73779   10.43682
       H     0.96762   -8.87680    0.00569
       O     1.16005   -9.43779   -0.81571
      H1     1.77868  -10.07643   -0.39482
       H    -6.90687  -17.61931   -3.35715
       O    -6.13346  -17.02888   -3.18808
      H1    -6.63270  -16.18238   -2.91869
       H    -7.30745  -13.79686    7.94899
       O    -6.55170  -13.40216    8.35853
      H1    -6.96150  -12.67014    8.83634
       H    -2.65160  -11.77824   -2.14942
       O    -2.09931  -11.04023   -1.85420
      H1    -1.42102  -11.45948   -1.29127
       H     0.93902  -13.70312    4.78626
       O     1.71207  -13.15014    4.89995
      H1     1.26016  -12.27489    4.78989
       H   -10.82398  -11.72364    1.92732
       O   -11.44168  -12.03948    2.60335
      H1   -10.90125  -12.41722    3.35129
       H    -4.58695  -15.87475    5.81927
       O    -5.35781  -16.35061    6.22103
      H1    -5.34488  -17.26216    5.90255
       H    -4.54485  -12.90355   -2.03504
       O    -4.38330  -13.85587   -2.19080
      H1    -4.01204  -13.87386   -3.11428
       H   -10.64425  -11.14429   -0.54883
       O   -11.15816  -10.80781   -1.31837
      H1   -10.60939  -10.08122   -1.60692
       H    -8.93134  -16.73596    2.82835
       O    -8.62083  -16.92502    1.94014
      H1    -7.63724  -16.76099    2.04727
       H    -8.91050  -16.99640    8.53513
       O    -7.95502  -17.12545    8.58392
      H1    -7.83639  -17.10596    7.58508
       H    -9.24880  -12.65809    7.50584
       O    -9.19485  -13.59647    7.26935
      H1    -9.74920  -13.66596    6.47463
       H    -2.87815  -14.44176   -0.66841
       O    -2.67074  -14.99958    0.11321
      H1    -1.87373  -14.61368    0.50117
       H    -6.85634   -8.81801    0.24555
       O    -6.76565   -9.77914    0.38521
      H1    -6.79094  -10.04608   -0.59538
       H    -3.74263  -13.97949    5.58207
       O    -3.63103  -14.67487    4.85088
      H1    -3.87815  -14.22450    4.04644
       H    -1.43895  -11.35874    2.06695
       O    -0.61834  -10.80868    2.14390
      H1    -0.50328  -10.87802    3.08567
       H    -0.61492  -14.88529   -2.41421
       O    -1.15870  -14.10031   -2.26467
      H1    -0.68436  -13.68138   -1.59489
       H   -11.23088  -16.01372    0.81875
       O   -10.45117  -15.60399    0.41696
      H1    -9.67812  -15.91904    0.98816
       H    -4.44243  -16.70278    2.11604
       O    -4.81251  -15.91959    1.64769
      H1    -4.07852  -15.58268    1.13775
       H    -7.04914  -11.24625    6.01119
       O    -7.33844  -10.47579    5.53382
      H1    -6.83684   -9.78087    5.98158
       H    -1.82142  -11.79852    8.95750
       O    -1.53180  -11.99771    8.08232
      H1    -0.92783  -12.74436    8.19923
       H    -5.90319   -8.72676   -2.09900
       O    -5.03834   -9.06162   -2.37029
      H1    -5.07169   -9.14835   -3.37714
       H    -2.50290  -18.86724    5.92901
       O    -2.80970  -18.00334    5.76102
      H1    -3.18494  -18.03719    4.85141
       H    -3.54610  -11.39416    3.44745
       O    -3.66625  -12.23567    2.92178
      H1    -4.58388  -12.41165    3.15535
       H    -5.07291  -10.88073   -1.87014
       O    -5.48421  -11.54613   -1.31271
      H1    -5.23954  -11.33606   -0.43194
       H    -8.16370  -17.71486    5.21122
       O    -8.68166  -17.30076    5.94630
      H1    -9.29321  -17.96533    6.23806
       H    -0.53882  -16.30292    4.20974
       O    -0.72003  -15.36777    4.50912
      H1    -1.48848  -15.49949    5.13696
       H    -1.02390   -7.24314    2.94494
       O    -1.59448   -6.70337    3.41797
      H1    -1.73485   -5.89103    2.96013
       H     0.18427  -18.40768    4.04990
       O    -0.47340  -17.87504    3.53281
      H1    -0.00040  -17.93227    2.63698
       H    -0.37337   -8.89854    2.06316
       O    -0.03781   -8.07090    1.65935
      H1    -0.60270   -7.88139    0.91036

