180
frame 5 | Written by MDAnalysis XYZWriter (release 2.4.3)
       H    -2.62864   -9.83828  -14.26269
       O    -2.08385   -9.37278  -13.52515
      H1    -2.60227   -9.50824  -12.68424
       H     8.30022  -17.76147  -10.34303
       O     7.32210  -17.66060  -10.57188
      H1     7.32626  -18.05275  -11.42128
       H    -1.11337  -12.51928   -8.45791
       O    -1.29648  -12.51730   -9.41534
      H1    -2.22719  -12.93031   -9.43771
       H    -1.77587  -12.03081  -15.82285
       O    -2.52394  -11.63456  -15.29061
      H1    -2.42859  -12.23506  -14.50939
       H    -1.18469  -11.10539  -19.15470
       O    -0.80677  -11.32198  -18.28613
      H1    -0.20218  -11.98394  -18.46224
       H     1.06823  -16.31904  -10.24205
       O     1.38225  -16.58929   -9.39903
      H1     1.18638  -15.80189   -8.85848
       H     5.87625  -18.24882  -15.40037
       O     5.45024  -18.41666  -14.53815
      H1     6.27509  -18.25746  -14.04068
       H     3.23338  -16.79770   -9.12542
       O     4.03206  -17.02222   -8.71723
      H1     4.50499  -17.52823   -9.36918
       H    -2.03308  -14.91638  -14.30149
       O    -1.84094  -15.56785  -15.04778
      H1    -1.10584  -16.04022  -14.65457
       H     3.32445  -15.02743  -13.51326
       O     3.17764  -15.67504  -12.86154
      H1     4.04606  -16.08665  -12.81596
       H     3.18381  -13.63282  -12.28017
       O     3.13779  -12.89225  -12.88525
      H1     2.53790  -13.34520  -13.52293
       H     2.46910  -13.60695  -17.50007
       O     3.00746  -13.05176  -16.91229
      H1     3.92223  -13.28754  -17.19744
       H    -0.16986  -13.50322  -16.78182
       O    -0.31397  -13.65287  -15.79387
      H1    -0.68346  -14.52009  -15.72459
       H     8.93418  -18.00093  -13.84500
       O     8.07458  -17.76010  -14.20228
      H1     8.10860  -18.29185  -14.99825
       H     8.06359  -11.69320   -7.04361
       O     7.11438  -11.79330   -7.12909
      H1     6.92401  -10.99495   -7.61187
       H     0.16085  -15.29103  -12.16797
       O     0.50754  -16.09855  -11.80583
      H1     1.37456  -16.18205  -12.22004
       H     3.66469  -12.79945   -9.04662
       O     2.75389  -12.65183   -8.78621
      H1     2.83611  -12.19695   -7.93722
       H     3.42881   -8.47139   -7.48030
       O     3.24106   -8.01792   -8.32399
      H1     3.44817   -8.79645   -8.85816
       H     0.61874  -17.65338  -14.68691
       O    -0.21444  -17.63487  -14.28834
      H1     0.05302  -17.64718  -13.35384
       H    -0.92639   -7.66573  -13.10888
       O    -0.50400   -6.81156  -12.99161
      H1     0.07136   -7.09783  -12.22201
       H     3.01327   -6.97940  -15.21625
       O     3.94661   -7.20020  -15.42508
      H1     3.86005   -7.23251  -16.36119
       H    10.03208  -10.94945  -14.40519
       O     9.24685  -10.53314  -14.76794
      H1     9.00020   -9.93789  -14.06693
       H     1.25821  -10.51823  -10.41150
       O     0.74102  -10.00041  -10.99958
      H1     1.42382   -9.44500  -11.40425
       H     2.10821  -13.94700   -7.56891
       O     1.62160  -14.71404   -7.21851
      H1     0.71374  -14.36934   -7.07402
       H     2.78949   -7.31480  -12.29989
       O     2.34767   -8.20117  -12.10140
      H1     2.26326   -8.61258  -12.97980
       H     5.40524  -14.90242  -11.56886
       O     5.84446  -15.59662  -12.03628
      H1     6.44180  -15.99189  -11.35704
       H    -1.93291  -10.81761  -10.17120
       O    -2.67962  -10.56643  -10.68849
      H1    -3.25864  -10.07800  -10.04704
       H     8.75818  -11.42506  -16.38325
       O     8.55082  -11.89651  -17.21153
      H1     7.58511  -11.76338  -17.23471
       H    -3.12398  -14.43435  -12.88977
       O    -2.58757  -13.73001  -13.30406
      H1    -1.83456  -13.79162  -12.70812
       H     6.61153  -13.46467   -7.77124
       O     6.59035  -14.36779   -8.11185
      H1     6.08079  -14.64566   -7.33920
       H     0.81098   -7.88980  -16.94574
       O     0.57508   -8.31857  -16.12594
      H1     0.56892   -7.61350  -15.47064
       H    -4.62948  -13.28444  -11.24967
       O    -4.10756  -13.01598  -10.42745
      H1    -3.52651  -12.26783  -10.69094
       H    -0.23064  -19.35770   -9.68978
       O    -0.26088  -18.61442   -9.05291
      H1     0.31343  -17.92397   -9.41617
       H     2.94371  -16.11492  -16.97435
       O     3.25836  -15.88491  -17.80876
      H1     4.08165  -15.46781  -17.55587
       H     1.57523   -8.31871   -8.83104
       O     0.58590   -8.30830   -8.99092
      H1     0.56459   -8.78912   -9.83624
       H     7.29147   -8.45681  -12.48124
       O     8.22877   -8.36663  -12.33229
      H1     8.44581   -7.81440  -13.12581
       H    -1.86768  -10.14362  -17.14978
       O    -2.11277   -9.31188  -16.77706
      H1    -1.23962   -9.13568  -16.38537
       H     3.79331  -10.68953   -5.71459
       O     3.45451  -11.60300   -5.90772
      H1     2.56428  -11.59668   -5.62508
       H     2.31973  -16.25779  -15.06109
       O     2.33406  -17.12163  -15.54751
      H1     2.98246  -17.61988  -15.11854
       H     9.24519  -13.19099  -16.04694
       O     9.55055  -13.49354  -15.16422
      H1     8.79846  -13.35644  -14.51584
       H     1.80672  -19.20134  -11.09467
       O     2.67037  -18.91829  -11.42309
      H1     3.18318  -18.89680  -10.62575
       H     6.02448  -10.46456  -17.97488
       O     5.90775  -11.32643  -17.67446
      H1     5.59214  -11.14228  -16.77777
       H     9.38575  -15.02023  -15.58855
       O     9.30908  -15.95033  -15.92826
      H1     9.01463  -16.38364  -15.10883
       H     0.59010  -14.96480  -18.56030
       O     0.62775  -13.98960  -18.36819
      H1     0.32886  -13.64901  -19.26937
       H     5.69104  -14.97918  -13.98564
       O     5.29273  -14.30226  -14.59895
      H1     5.81827  -13.46707  -14.49213
       H     1.23449  -13.96077  -15.19886
       O     2.06761  -14.44423  -14.83976
      H1     2.62745  -14.03509  -15.49395
       H     8.22922  -11.74372  -13.93590
       O     7.48103  -12.40885  -13.85625
      H1     7.58129  -12.76816  -12.92848
       H     1.65293   -9.55131  -15.16479
       O     1.93626   -9.83802  -14.30295
      H1     1.26255  -10.51356  -14.06611
       H    -0.13378  -12.87524  -12.41650
       O    -0.46878  -13.65332  -11.91290
      H1    -0.69081  -13.26059  -11.02992
       H     5.79529   -6.47922   -9.56908
       O     6.31082   -7.01188  -10.14673
      H1     5.59916   -7.26865  -10.80540
       H     4.25575  -10.40708  -10.55201
       O     3.63494  -10.25415   -9.80966
      H1     3.34601  -11.17763   -9.65259
       H     5.73446  -13.38483  -10.01690
       O     4.81793  -13.73654  -10.20995
      H1     4.78385  -14.42716   -9.55286
       H    -0.78259  -10.94155  -13.36671
       O     0.00597  -11.43632  -13.14802
      H1     0.31075  -11.01703  -12.33786
       H     5.19644   -7.66532  -14.18991
       O     5.43654   -8.05476  -13.31958
      H1     4.98515   -8.92536  -13.45784
       H     7.70211   -9.04688   -9.19736
       O     6.82692   -9.39981   -8.87247
      H1     6.11651   -8.80389   -9.21428
       H     2.96993  -11.14792  -17.95462
       O     2.89520  -10.60792  -18.75209
      H1     3.22394   -9.71044  -18.48868
       H     5.57278  -14.90750  -16.24941
       O     5.67642  -15.18307  -17.16261
      H1     6.39942  -15.87233  -17.10780
       H     4.62533  -12.21872  -14.52185
       O     4.73506  -11.37470  -14.96989
      H1     3.87790  -11.01163  -15.01055
       H     8.34085  -12.63418  -10.89939
       O     7.42294  -12.37543  -11.09265
      H1     7.51137  -11.40136  -11.07825
       H     4.73982  -10.62447  -12.92510
       O     5.16880  -10.70742  -12.04462
      H1     5.51603  -11.58427  -12.07929

