180
frame 73 | Written by MDAnalysis XYZWriter (release 2.4.3)
       H    18.19194   14.87591   -2.35799
       O    17.99665   14.00036   -2.67357
      H1    18.78458   13.63676   -2.21713
       H    13.48676    9.89948   -2.29881
       O    13.38783    8.90062   -2.30749
      H1    12.71946    8.54532   -1.67452
       H    14.90474    3.59750    6.10990
       O    15.25458    2.75285    5.80632
      H1    15.98235    2.48586    6.37491
       H    10.99067   12.18970    3.32094
       O    10.18973   11.93818    3.70419
      H1     9.64005   11.63345    2.97438
       H    12.67887   12.63105    7.49069
       O    12.19439   11.77468    7.53770
      H1    12.36111   11.34630    6.67587
       H    16.92253   12.60652    3.15587
       O    17.51501   12.60713    3.88919
      H1    17.06804   11.99340    4.52961
       H    14.57705    8.00854    5.39737
       O    15.49255    8.20667    5.53961
      H1    15.50214    9.12256    5.57187
       H    10.97127    6.80067   -0.87866
       O    11.54573    7.48035   -0.45909
      H1    10.92144    8.13882   -0.08102
       H    12.34798   11.49526   -1.90738
       O    13.10274   11.60905   -2.52592
      H1    12.70894   11.50695   -3.41246
       H    15.56918   11.90978   -3.69374
       O    16.13204   11.11734   -3.78385
      H1    16.90902   11.40797   -3.27418
       H    11.08787    9.65461    5.07743
       O    11.91560    9.86418    4.70088
      H1    11.63605   10.49511    4.06554
       H    16.03277    7.51035   -0.82327
       O    16.80489    7.29000   -1.32859
      H1    16.52055    7.63507   -2.21012
       H    17.16915    0.06612    2.04766
       O    17.41637    0.26768    2.93948
      H1    18.14241    0.84014    2.69034
       H    13.76707    4.35556   -0.61833
       O    12.94272    3.87648   -0.69795
      H1    13.11615    2.93867   -0.82360
       H    17.23011    2.76889    8.29981
       O    17.53983    2.22398    7.55670
      H1    18.27850    2.76144    7.19499
       H    17.94680   16.01657    2.73608
       O    17.48315   15.42873    2.14096
      H1    18.23300   15.05219    1.60019
       H    15.55373    9.25416    9.67736
       O    16.49615    9.33447    9.45142
      H1    16.63016    8.36431    9.04436
       H     9.38335    4.71289    2.15725
       O     9.55597    5.24299    1.36381
      H1    10.35130    5.66255    1.71237
       H    12.06881    6.67168    1.11442
       O    12.11730    6.13312    1.95901
      H1    12.44335    6.81714    2.50654
       H    15.36538    3.15355   -2.47757
       O    15.15747    3.06628   -3.47129
      H1    14.98802    2.04990   -3.56709
       H    15.58694   12.20770    0.06192
       O    16.12391   12.68113   -0.61750
      H1    16.07754   13.60851   -0.29423
       H    11.12553    2.29144    2.69759
       O    11.81615    2.99065    2.55081
      H1    11.80645    3.25576    1.59669
       H    17.81771    4.43508   -1.01189
       O    16.86443    4.42502   -1.28042
      H1    16.79611    5.42194   -1.28754
       H    15.15152    2.02199    0.40461
       O    15.49301    2.23513   -0.45945
      H1    15.79012    3.14345   -0.36695
       H    15.69783   15.35534    1.05638
       O    15.01999   15.11971    0.40396
      H1    15.17660   15.60834   -0.42167
       H    12.35768    8.16142    4.49619
       O    12.88218    7.31833    4.63509
      H1    12.15381    6.60687    4.71802
       H    13.40516    6.16267   -1.86522
       O    14.21892    6.06592   -2.41704
      H1    14.08375    6.76579   -3.03751
       H    19.42066    9.91190   -3.50410
       O    19.00778   10.67840   -3.02349
      H1    18.68056   10.30420   -2.19757
       H    14.83717   13.88620    6.24782
       O    14.07015   13.85647    6.88153
      H1    14.55467   13.35546    7.54301
       H    18.50821    3.95894   -3.78584
       O    19.31701    3.58229   -3.35995
      H1    19.59630    2.88115   -3.97741
       H    18.83228    9.23555   -0.49983
       O    18.03051    9.64639   -0.79945
      H1    17.48172    8.97545   -1.25385
       H    15.80878    7.34601    7.21999
       O    16.30408    7.13176    8.00676
      H1    15.66826    6.82128    8.66736
       H    13.93371   13.11962   -2.76047
       O    14.74035   13.68037   -2.88668
      H1    15.31012   13.38076   -2.12274
       H    18.92071   11.55172   -0.11983
       O    18.90299   12.44505   -0.53600
      H1    17.95084   12.61724   -0.70583
       H    17.22001    9.06714    0.87961
       O    16.60633    9.08915    1.62713
      H1    15.91312    8.48174    1.35109
       H    13.79532    5.87004    5.79051
       O    13.86074    5.14527    6.42685
      H1    13.27366    5.47971    7.12858
       H    17.99957    0.09929    4.56348
       O    18.62625   -0.03538    5.25877
      H1    18.00876   -0.01581    6.02777
       H    16.85843    7.60174    4.52788
       O    17.51039    7.40256    3.84453
      H1    17.26148    7.95949    3.03011
       H    12.37523   12.31770    1.40060
       O    12.54010   12.28785    2.36389
      H1    12.95187   13.18172    2.42830
       H    14.54283    6.70570    0.60557
       O    14.79223    7.61391    0.16312
      H1    14.40724    7.56439   -0.76265
       H    14.08452    2.12894    7.19527
       O    13.49094    2.03591    8.00243
      H1    12.85487    2.71422    7.75638
       H     9.30460    7.36625    5.18191
       O     9.49066    6.90630    4.36859
      H1     9.97308    6.12200    4.69434
       H    14.14808   -0.20020    5.74024
       O    13.51157    0.39645    5.38255
      H1    13.93205    1.27432    5.23973
       H    17.93097    4.82544    9.32498
       O    17.05843    4.61591    9.10015
      H1    16.70316    5.40877    8.65958
       H    13.63269    5.75443    9.96755
       O    13.89417    6.38745    9.28214
      H1    13.63037    7.15425    9.74964
       H    17.43996   10.48377    6.02071
       O    16.62720   10.89867    5.83574
      H1    16.50002   11.25821    6.71664
       H    13.74595    5.51361    1.85398
       O    14.55676    5.28410    1.27599
      H1    15.15654    5.24629    2.03025
       H    18.28926    3.82492    4.16757
       O    18.61852    4.63985    4.70030
      H1    18.23442    5.41533    4.28833
       H    17.40871   -0.08027   -0.34532
       O    17.69232    0.78203    0.00434
      H1    16.90189    1.33422   -0.17792
       H    11.31373    4.09288    3.85322
       O    11.07373    4.68736    4.57031
      H1    11.39518    4.21136    5.35682
       H    16.92642   15.24043    5.63812
       O    16.23338   14.64619    5.35758
      H1    16.64276   14.18551    4.60211
       H    13.05909   10.89767    8.83576
       O    13.63414   10.65210    9.62392
      H1    13.73474   11.48719   10.10571
       H    16.85826    8.07049   -4.44848
       O    16.20875    8.37183   -3.79185
      H1    16.23958    9.34071   -4.06529
       H    18.43161    8.80198    9.70805
       O    19.33331    8.52357    9.32104
      H1    19.25275    8.96264    8.45684
       H    10.42904   11.10001   -0.29031
       O    11.18775   11.71788   -0.22298
      H1    10.82602   12.56769   -0.49707
       H    15.12107   11.58051    8.82240
       O    15.55269   12.26548    8.29763
      H1    16.07556   12.69987    8.96926
       H    15.87399    3.20850    2.57811
       O    16.24168    4.02674    2.94881
      H1    16.23020    3.86265    3.89256
       H    14.77910   11.20974    1.99117
       O    15.70833   11.50927    1.90183
      H1    16.14681   10.65915    1.97288
       H    19.19574    1.62956   -0.54564
       O    19.77111    2.16337   -1.10360
      H1    19.26660    2.34269   -1.87886
       H    14.43280    1.04702    2.26566
       O    14.68565    1.99091    1.98005
      H1    13.80114    2.36882    1.81162

