180
frame 10 | Written by MDAnalysis XYZWriter (release 2.4.3)
       H    -4.10308    4.40290    5.63256
       O    -4.52990    4.82920    4.84279
      H1    -5.35651    5.21124    5.23717
       H    -5.83625    3.03685   11.77224
       O    -6.10546    3.78843   12.26900
      H1    -6.68655    3.27036   12.85912
       H    -1.94425    4.15671    6.35432
       O    -2.77611    3.66161    6.38544
      H1    -2.56647    3.02424    5.60394
       H    -5.85328    0.03314    8.62097
       O    -5.92936   -0.78230    8.07922
      H1    -6.76078   -0.64794    7.62444
       H   -15.52282    1.12570   10.04610
       O   -15.88136    1.76135   10.67243
      H1   -15.06368    2.20175   10.88132
       H   -12.84406    3.73617    3.03387
       O   -13.68808    4.04102    2.65176
      H1   -13.38359    4.68787    2.02880
       H   -10.61797   -2.22143    7.34749
       O   -11.53057   -2.52944    7.36093
      H1   -11.45431   -2.90684    8.25523
       H    -7.30045    9.11243    7.34600
       O    -6.64742    9.81201    7.06011
      H1    -6.98353   10.61769    7.54924
       H    -5.69797    5.80543   10.45192
       O    -5.10231    5.54371    9.73628
      H1    -4.97781    4.60183    9.92197
       H    -6.62005   -1.13386    9.69276
       O    -6.98245   -1.51218   10.50485
      H1    -7.81347   -1.05067   10.64258
       H   -12.71786    4.48488    5.61536
       O   -13.49629    3.94484    5.61295
      H1   -13.77588    3.99300    4.70609
       H   -11.61670   -1.31848   10.70992
       O   -11.94091   -0.46006   10.89098
      H1   -12.90858   -0.56323   10.97775
       H    -9.13109    9.80288    9.53326
       O    -8.48490    9.61897   10.32507
      H1    -9.16843    9.46812   10.96194
       H    -3.33253    2.62215    9.23963
       O    -3.70818    2.80615   10.14536
      H1    -2.94637    2.59482   10.71472
       H    -8.89278    5.55678    9.17641
       O    -8.62922    6.14298    9.96316
      H1    -9.37789    5.98688   10.54306
       H   -10.40188    2.44184   11.77446
       O   -10.11921    2.86628   11.00146
      H1   -10.92073    2.98873   10.48144
       H    -9.68756    4.63762    6.88362
       O    -8.96508    4.33687    7.43734
      H1    -9.26186    3.52396    7.89527
       H    -7.81006    7.08758   13.34696
       O    -8.37463    7.36353   14.08092
      H1    -7.89153    6.87511   14.76708
       H    -7.26578    4.18158    7.66999
       O    -6.35833    3.86952    7.82818
      H1    -6.03788    4.66535    8.23218
       H   -10.85869   10.68690    8.15066
       O   -10.77956    9.77576    8.42907
      H1   -10.59014    9.19954    7.69704
       H   -12.49213    1.10744    7.20404
       O   -12.41886    2.03444    7.49386
      H1   -12.84291    2.47304    6.71363
       H   -11.56263    0.24694    4.14255
       O   -11.01444   -0.47407    4.42007
      H1   -11.59984   -1.25474    4.40874
       H    -6.77331    6.16742    4.44413
       O    -6.61513    6.18482    5.37823
      H1    -5.98079    6.98164    5.50647
       H   -11.55666    8.10807   10.54081
       O   -12.26196    8.14834    9.90069
      H1   -11.73157    8.78959    9.38119
       H   -10.57379    6.00060    3.00107
       O    -9.98835    5.22151    3.04869
      H1    -9.75733    4.82745    2.15242
       H    -7.76369    2.30726    4.98059
       O    -8.70589    2.11023    5.20948
      H1    -8.80945    2.49784    6.07019
       H    -9.69417   -0.00325    3.31628
       O    -8.86987    0.01613    2.81111
      H1    -9.15684   -0.57904    2.13716
       H   -10.06020   -1.80626   11.92710
       O   -10.20523   -2.25084   12.77063
      H1    -9.52540   -2.92826   12.84337
       H   -11.43115    6.00241   12.40704
       O   -11.19674    5.92049   11.44249
      H1   -11.60770    5.10963   11.14058
       H    -7.94334    9.82433    5.18418
       O    -8.00034    9.64707    4.23433
      H1    -7.56962    8.78243    4.08016
       H   -13.11985   -0.31475    5.54582
       O   -13.30046   -0.48075    6.48413
      H1   -12.69772   -1.16351    6.75160
       H    -8.25698    1.71667   13.75833
       O    -8.14282    1.64371   12.77286
      H1    -8.42348    2.45713   12.39960
       H   -12.64550    7.04968    8.57723
       O   -13.06241    6.48368    7.82775
      H1   -12.88570    6.97250    6.99639
       H    -8.16399    5.43737    2.87539
       O    -7.23891    5.77459    2.84728
      H1    -6.76306    4.97285    2.48404
       H   -13.24330    3.49790   10.33288
       O   -13.41115    3.04381   11.18748
      H1   -13.92391    3.70032   11.70851
       H   -14.49271    3.76320    7.00833
       O   -15.27964    3.56917    7.58380
      H1   -15.24473    4.42649    8.08668
       H   -10.16099    1.71229    7.99514
       O    -9.19789    1.71348    8.17398
      H1    -9.14261    1.31713    9.07909
       H    -7.55004    6.83056    7.03258
       O    -7.97046    7.59167    7.50410
      H1    -8.22615    7.30350    8.41690
       H   -11.53338    1.66493    2.61034
       O   -11.42303    2.09286    3.49506
      H1   -10.52240    1.87101    3.71909
       H    -8.31105   -2.22293    9.43570
       O    -8.70718   -2.90996    8.90215
      H1    -8.21630   -3.71097    9.17354
       H    -5.18230   -0.17381   13.18445
       O    -4.99647    0.79279   13.05713
      H1    -5.84552    0.97367   12.64826
       H   -16.11753    6.23520    8.11399
       O   -15.48212    6.03844    8.81163
      H1   -14.61838    6.27493    8.36595
       H   -14.73698   -0.26101    4.26898
       O   -14.00809    0.33445    3.90223
      H1   -14.33137    1.23732    4.00418
       H    -7.68891   -2.83147    5.25533
       O    -7.77792   -3.43442    5.98190
      H1    -8.04955   -2.80526    6.62436
       H   -10.46931    4.80816    4.70091
       O   -10.86347    5.03438    5.58559
      H1   -10.62005    5.99518    5.69738
       H   -15.32683    1.51447    7.70371
       O   -15.41170    0.55374    7.62692
      H1   -14.66397    0.22279    7.12197
       H   -10.18703   -0.00493   10.92128
       O    -9.23939   -0.02186   10.68380
      H1    -8.89038    0.54955   11.38296
       H   -11.42019    8.26998    2.67965
       O   -11.62324    7.33262    2.71989
      H1   -12.14275    7.17128    3.54359
       H   -12.52956    4.95400    8.45038
       O   -11.97635    4.25752    8.95140
      H1   -11.97971    3.51144    8.31330
       H    -6.70430    7.73194   11.16526
       O    -6.69121    6.92557   11.68017
      H1    -7.42692    6.42948   11.29418
       H   -11.93126    1.78179   12.23200
       O   -11.37964    1.67440   13.09322
      H1   -11.51357    2.63158   13.41198
       H    -7.76180   -0.49914    3.95873
       O    -7.00523   -0.71168    4.52935
      H1    -6.80699    0.12946    4.92978
       H    -3.12901    5.69348    9.70658
       O    -2.18429    5.86664    9.80339
      H1    -2.23299    6.18046   10.69688
       H   -12.60461    8.49888    4.84778
       O   -12.97982    7.61452    5.12531
      H1   -13.82275    7.95198    5.42624
       H   -10.39921    8.35120    5.70199
       O   -10.48643    7.85201    6.52331
      H1    -9.56124    7.68274    6.81345
       H    -6.63324    0.83652    1.04528
       O    -7.36141    1.46179    1.01468
      H1    -7.91259    1.06436    1.69818
       H    -8.93331   -0.14320    7.52902
       O    -8.58663   -0.86966    7.02697
      H1    -8.56177   -0.48749    6.15049
       H    -5.04683    1.75732   10.35669
       O    -5.88436    1.40058   10.06243
      H1    -5.98449    2.04495    9.30774
       H    -6.38488    2.79713    1.94829
       O    -5.74898    3.48310    2.35088
      H1    -4.98096    3.50437    1.76109
       H    -5.92140    2.91041    5.76125
       O    -6.02094    2.49711    4.91531
      H1    -5.78751    3.25019    4.31726

