180
frame 1 | Written by MDAnalysis XYZWriter (release 2.4.3)
       H    -2.19839    4.30313    4.29800
       O    -2.31666    5.22365    3.94601
      H1    -2.93823    5.63556    4.47999
       H    -7.49819    1.36143    8.14860
       O    -7.43742    1.44482    9.11451
      H1    -8.29077    1.86391    9.40137
       H    -4.07212   -3.72568   10.38083
       O    -4.90954   -3.67323    9.88813
      H1    -4.75032   -4.16170    9.04540
       H   -10.42577   -1.21185    8.12678
       O   -10.90515   -1.66865    7.38450
      H1   -10.17237   -2.11761    6.91371
       H    -1.46310    4.70579    9.08300
       O    -1.49267    4.29998    8.19575
      H1    -2.37243    4.59187    7.93846
       H    -5.03712    5.04513    7.69777
       O    -4.20420    5.52676    7.72985
      H1    -4.42499    6.24197    8.31213
       H    -6.53341   -4.21641   12.64595
       O    -6.67323   -3.33138   12.22005
      H1    -6.21268   -3.27536   11.41133
       H   -10.75951    1.99830    2.08375
       O   -11.14762    2.19193    2.98327
      H1   -12.09934    2.01662    2.73446
       H    -1.28824   -0.62517    8.25318
       O    -1.46760   -1.46923    8.61479
      H1    -1.74588   -1.07180    9.45270
       H    -5.53932    3.56202   10.82718
       O    -5.32759    3.37844    9.90350
      H1    -6.06285    2.96245    9.47895
       H    -9.97598    5.13384    8.87245
       O    -9.92661    6.05506    9.03331
      H1    -9.51205    6.03039    9.93802
       H    -8.82261    2.40085   13.97435
       O    -8.01307    2.77989   13.57942
      H1    -7.40752    2.10905   14.00865
       H   -11.11622    3.00956    7.57230
       O   -10.32961    3.46000    7.77583
      H1    -9.97615    3.61668    6.83049
       H    -7.26260    2.05331    6.31693
       O    -7.62389    1.14425    6.51038
      H1    -8.10438    1.07127    5.65163
       H    -3.28013   -3.35214    2.12753
       O    -3.89177   -3.43321    1.34106
      H1    -4.56865   -2.83530    1.61571
       H    -4.08084    1.66552    7.55757
       O    -5.00326    1.83599    7.35220
      H1    -5.22073    0.94106    6.99466
       H   -13.16365    1.24071    9.21968
       O   -13.14457    1.81712    8.48909
      H1   -12.67501    1.24901    7.82782
       H    -9.23276   -3.03177    3.44268
       O    -8.77514   -2.23320    3.73062
      H1    -7.85553   -2.38748    3.47628
       H    -7.89858    4.45147    5.49122
       O    -7.10738    4.45648    5.97114
      H1    -6.55148    4.89611    5.29860
       H    -5.22786    7.08562    3.80689
       O    -5.21697    6.11058    3.99635
      H1    -5.32789    5.77117    3.08169
       H    -6.08584    1.95363    2.97447
       O    -6.70345    1.60090    2.31962
      H1    -7.30352    1.08744    2.91036
       H    -9.30206   -1.43150    1.33404
       O    -9.07441   -1.11512    0.46074
      H1    -8.08741   -1.24290    0.50414
       H    -6.34782   -2.38922    0.33266
       O    -6.44347   -1.86847    1.11670
      H1    -6.03878   -1.00843    0.88427
       H    -9.03138    6.40817   12.15833
       O    -8.61488    5.97971   11.37374
      H1    -9.00543    5.11977   11.46435
       H   -12.44955    0.60631    5.06195
       O   -12.31193    0.51629    6.04901
      H1   -11.88505   -0.36635    6.09291
       H    -8.50531    2.87301   11.48269
       O    -9.12351    2.90282   10.75881
      H1    -9.99892    2.73467   11.17236
       H    -8.86202    6.08207    1.86832
       O    -7.99431    5.96315    1.48110
      H1    -7.81995    5.04040    1.66415
       H    -2.39987   -0.82356    4.82991
       O    -2.29013   -1.69420    5.25183
      H1    -2.49935   -2.34386    4.60627
       H    -1.86835    3.14782    6.04473
       O    -1.36809    2.87000    5.28724
      H1    -0.56321    3.39979    5.51271
       H   -14.71919    1.33272    8.04745
       O   -15.58934    0.98847    7.74282
      H1   -16.09711    1.83205    7.78449
       H    -5.04815   -1.30264    9.50949
       O    -5.92696   -0.99246    9.55740
      H1    -5.89848   -0.03843    9.51755
       H    -9.01711   -0.93843   10.38384
       O    -9.03493   -1.24495    9.48440
      H1    -8.18725   -0.88235    9.30951
       H    -7.36735    6.31582    6.95271
       O    -7.66697    7.04761    7.53439
      H1    -8.25033    6.61914    8.15929
       H    -9.84343    0.55872    0.35279
       O   -10.01499    1.53428    0.30089
      H1    -9.13133    1.92555    0.33214
       H    -8.21961   -2.59247    9.36673
       O    -7.61870   -3.36232    9.14016
      H1    -6.73683   -3.10141    9.35566
       H    -5.59250    0.95170   12.57436
       O    -6.12012    0.37354   12.00072
      H1    -6.11554    0.88874   11.17120
       H    -1.97962    1.71585    4.10855
       O    -2.48977    0.96204    3.75363
      H1    -3.42891    1.37472    3.88191
       H   -12.29852   -3.84436    6.70071
       O   -12.75451   -4.59000    6.39068
      H1   -12.53704   -4.70730    5.46602
       H   -12.40592   -2.13013    3.13171
       O   -11.73359   -1.70211    2.53246
      H1   -12.21083   -1.59063    1.73579
       H    -9.16181   -2.87939    5.15710
       O    -9.38566   -3.49897    5.90152
      H1    -8.58017   -3.89381    6.22223
       H    -7.74469   -4.64023    7.81696
       O    -7.25564   -4.98477    7.00112
      H1    -7.44886   -5.97389    7.01879
       H   -10.03589    3.52953    4.15128
       O    -9.64861    3.90294    4.94572
      H1    -9.98958    4.76673    5.10267
       H   -12.30185   -2.66523   10.47127
       O   -12.32001   -3.33836   11.16433
      H1   -11.35561   -3.62210   11.13184
       H    -9.02172   -1.60593   12.63585
       O    -9.03676   -0.68555   12.46256
      H1    -8.10304   -0.39223   12.44804
       H    -4.48836   -5.78329    8.06116
       O    -4.65010   -5.08546    7.42863
      H1    -5.63764   -5.04918    7.33324
       H   -10.76274    6.88103    6.12008
       O   -10.78132    6.37498    5.30993
      H1   -11.73112    6.22553    5.27614
       H   -13.88603    4.36207    7.45455
       O   -14.21280    4.45238    8.37622
      H1   -13.87162    3.63510    8.76794
       H   -12.45282    2.29235   11.40021
       O   -11.65890    2.65646   11.82481
      H1   -11.99274    3.46372   12.20679
       H    -2.29394    0.68210   10.55493
       O    -1.99203   -0.17882   10.91337
      H1    -1.05076    0.01094   11.09142
       H    -6.43780   -1.10197    5.96408
       O    -5.56466   -0.76747    5.74754
      H1    -5.04399   -1.57979    5.81363
       H    -3.10408   -4.00299    7.18070
       O    -2.16940   -3.91488    7.41338
      H1    -1.97349   -2.98592    7.68680
       H    -8.98354    8.89409    5.39230
       O    -9.04575    8.82671    6.35911
      H1    -8.48696    8.05171    6.55792
       H    -4.97443    0.85228   -0.00578
       O    -5.86127    0.49362    0.08438
      H1    -6.08173    0.91436    0.93286
       H   -15.27184   -1.54525    6.07414
       O   -14.37439   -1.50154    6.45319
      H1   -14.33411   -0.54233    6.50782
       H    -2.63708    1.18727    1.91572
       O    -2.74292    1.42282    0.97112
      H1    -2.20368    2.26546    0.92733
       H    -9.85518    0.81875    3.56377
       O    -9.06046    0.41623    3.92623
      H1    -9.25819   -0.54325    3.83138
       H    -2.26929    2.81915    9.27077
       O    -2.75451    2.25584    9.87502
      H1    -3.66699    2.57326    9.81584
       H    -8.28837   -3.60654   11.77520
       O    -9.19415   -3.97974   11.71273
      H1    -8.90425   -4.59306   11.01775
       H    -5.47467    5.17870    0.63738
       O    -5.02534    5.12227    1.46769
      H1    -4.18390    4.84122    1.10930
       H    -5.25335    3.04025    4.61998
       O    -4.53950    2.86140    4.03036
      H1    -4.61867    3.62950    3.44204

