180
frame 3 | Written by MDAnalysis XYZWriter (release 2.4.3)
       H    -2.00683  -10.22742  -14.19330
       O    -1.66457   -9.49282  -13.63633
      H1    -2.21142   -9.65104  -12.83944
       H    -5.07469   -7.77219  -10.38772
       O    -5.42161   -7.74204   -9.50858
      H1    -5.24011   -6.80473   -9.25611
       H    -1.49372    0.41301  -13.79100
       O    -1.40983   -0.22346  -13.02694
      H1    -2.20904   -0.07422  -12.48380
       H    -2.24748   -3.30821  -13.22998
       O    -2.36070   -2.70965  -14.01316
      H1    -2.02549   -1.85333  -13.73635
       H    -3.56126    2.03312  -18.08134
       O    -3.15710    1.48385  -17.45642
      H1    -2.40281    1.25371  -17.96174
       H    -5.66792   -2.08576   -9.81237
       O    -6.39769   -1.85839  -10.42129
      H1    -6.99786   -1.36761   -9.80096
       H    -3.55492    3.62712  -12.99016
       O    -4.07680    3.97816  -13.68093
      H1    -4.84495    3.35330  -13.79908
       H    -5.30601    1.61449  -14.96210
       O    -6.23080    1.82312  -14.78251
      H1    -6.64369    1.93224  -15.64707
       H     0.01402   -2.97609   -7.52179
       O     0.34871   -3.04222   -6.64311
      H1     0.59977   -4.00790   -6.58732
       H    -5.78428   -1.40804  -14.43956
       O    -6.29597   -0.88314  -15.09300
      H1    -6.16097   -0.00438  -14.69323
       H    -5.25384   -1.24551  -16.45859
       O    -4.54262   -1.11136  -17.12424
      H1    -5.07123   -0.78738  -17.88795
       H    -8.54975   -5.70122  -12.61194
       O    -9.11163   -6.34852  -13.01309
      H1    -8.95228   -6.22205  -13.97697
       H     3.76907   -2.74368   -9.61745
       O     3.03744   -3.19048   -9.17560
      H1     2.96315   -2.72160   -8.31122
       H    -8.81447   -3.47896  -10.83169
       O    -7.99756   -3.89775  -10.53101
      H1    -7.33778   -3.12180  -10.47107
       H     0.27896   -2.16963  -12.70548
       O    -0.02308   -2.46888  -11.83118
      H1     0.53678   -3.14808  -11.47407
       H    -1.73523    3.86245  -10.71488
       O    -2.11162    3.08948  -11.20226
      H1    -2.76252    2.80600  -10.49846
       H     1.29495    2.21613  -13.30648
       O     1.90036    2.59063  -13.97059
      H1     1.31598    2.93178  -14.67086
       H    -0.19803    0.87964  -12.18790
       O     0.11926    1.79731  -12.08755
      H1    -0.80337    2.11436  -11.78492
       H    -5.70969   -4.25226  -13.53244
       O    -5.31183   -4.41277  -12.63111
      H1    -5.95779   -4.04192  -12.03034
       H    -2.52499   -5.02817  -10.21117
       O    -2.57134   -5.59074   -9.41980
      H1    -3.34203   -5.15680   -8.97758
       H     2.00474   -0.55064  -10.02229
       O     1.62527   -0.33930  -10.91517
      H1     1.04117   -1.02137  -11.17834
       H     2.05280   -4.38728  -10.70121
       O     1.40707   -4.92735  -11.12296
      H1     1.27005   -5.66017  -10.49909
       H    -8.87626   -2.10693  -12.79535
       O    -8.61191   -1.26193  -12.43501
      H1    -7.69297   -1.29690  -12.55416
       H    -1.66243   -7.86341  -13.64386
       O    -1.31187   -6.92726  -13.45569
      H1    -0.43813   -7.11152  -13.01943
       H     2.22317   -9.72288  -10.67060
       O     1.42556   -9.56852  -11.15523
      H1     1.56818   -8.69799  -11.50664
       H     2.01033   -6.53322  -12.37398
       O     1.85455   -7.42198  -12.74587
      H1     2.71091   -7.54253  -13.19480
       H     2.53148    0.44502  -16.14500
       O     3.49065    0.36227  -15.77474
      H1     3.45475    0.47405  -14.77508
       H    -1.20037   -2.89468  -17.15670
       O    -1.35701   -3.57356  -16.54531
      H1    -1.61739   -3.03164  -15.76332
       H    -2.30321   -9.75047  -10.23743
       O    -2.81857   -9.60226  -11.11039
      H1    -3.00743   -8.70381  -10.96775
       H     3.28416   -0.87862  -11.56909
       O     3.96284   -1.57646  -11.62687
      H1     4.34645   -1.39991  -12.49895
       H    -0.98942   -0.80326  -18.64397
       O    -0.96286   -0.40740  -17.80685
      H1    -1.87287   -0.62415  -17.50971
       H   -10.14928   -3.46705  -13.85952
       O    -9.21532   -3.45931  -14.20177
      H1    -9.41028   -3.41637  -15.16674
       H    -3.19989    1.06038  -15.56789
       O    -3.52701    1.25076  -14.68231
      H1    -3.61074    2.23551  -14.70074
       H    -3.58072   -8.80230  -14.24486
       O    -4.47972   -9.15398  -14.06823
      H1    -4.81124   -9.30075  -14.96879
       H    -1.04060   -4.27744  -12.00611
       O    -1.96345   -4.60182  -11.90676
      H1    -1.89721   -5.41356  -12.38733
       H     0.80114   -6.62816  -15.63948
       O     0.50237   -7.53405  -15.62108
      H1    -0.07095   -7.53266  -14.84231
       H    -1.45115   -2.25472   -7.85083
       O    -0.97204   -2.04603   -8.64827
      H1    -0.60759   -1.15574   -8.57691
       H    -2.78157   -4.34717  -17.51159
       O    -3.26033   -4.56010  -18.35847
      H1    -4.17853   -4.37052  -18.06413
       H     1.20708   -6.59401  -18.38245
       O     1.97176   -6.06811  -18.15550
      H1     1.93514   -5.32694  -18.74878
       H    -1.54797   -9.14226  -17.07087
       O    -1.89286   -8.22806  -16.85110
      H1    -1.08920   -7.85757  -16.42092
       H    -0.26828    1.71308   -8.06988
       O    -0.41525    0.85121   -8.51826
      H1     0.17307    0.83406   -9.28312
       H    -3.97510   -0.53260  -11.99784
       O    -3.56364    0.09506  -11.42089
      H1    -4.19826    0.84263  -11.65217
       H    -6.30648   -5.01746   -8.24236
       O    -5.35382   -5.06677   -8.19770
      H1    -5.18883   -5.24437   -7.30425
       H     3.85945   -3.32119  -13.41331
       O     4.53582   -3.32384  -14.05951
      H1     4.03913   -3.13351  -14.84992
       H    -0.62274   -6.14575   -8.75683
       O     0.32707   -6.42659   -8.80774
      H1     0.32881   -7.31180   -8.49849
       H    -9.23606   -0.08336  -15.64137
       O    -8.80503   -0.20085  -16.48871
      H1    -8.01818   -0.73439  -16.17138
       H    -4.61567   -7.53586  -13.02208
       O    -4.56319   -7.07849  -12.13846
      H1    -4.89850   -6.18514  -12.35135
       H    -2.17896   -7.81396  -18.63091
       O    -2.06657   -8.00389  -19.59344
      H1    -1.10349   -8.05652  -19.63109
       H    -2.12759    1.11381   -8.81039
       O    -3.05393    1.37927   -8.95711
      H1    -3.19816    0.77085   -9.74774
       H    -3.90346   -1.92209  -13.68077
       O    -4.63435   -1.72190  -13.05965
      H1    -4.71517   -2.58449  -12.63646
       H    -0.95329    3.68446  -16.36809
       O    -0.84187    2.86517  -16.88702
      H1    -1.80101    2.56391  -17.00778
       H    -3.94079   -1.15207   -9.92953
       O    -3.90167   -1.88685   -9.29446
      H1    -2.98091   -2.09558   -9.24008
       H     3.90261   -1.27691  -16.29135
       O     3.89032   -2.26886  -16.38747
      H1     4.40292   -2.27369  -17.25287
       H    -5.29342    3.15275  -11.23497
       O    -5.27256    2.27475  -11.62022
      H1    -5.87690    1.82532  -11.05322
       H    -0.00568    1.17096  -15.94126
       O     0.49738    0.36424  -15.85672
      H1     0.16119   -0.24140  -16.53374
       H    -6.00558   -2.41595   -7.46677
       O    -6.14670   -1.81648   -6.70451
      H1    -7.01161   -2.11349   -6.31543
       H    -7.16764   -4.63210  -16.76812
       O    -6.72611   -4.26572  -17.60561
      H1    -6.91431   -5.05041  -18.09249
       H     1.29295   -5.12801  -16.78665
       O     1.17262   -4.80771  -15.86632
      H1     0.26310   -4.38501  -15.93614
       H    -7.66746   -6.80017  -15.48725
       O    -7.14528   -6.08294  -15.69768
      H1    -6.36632   -6.52057  -16.01661
       H     1.67705   -2.33256  -14.75260
       O     1.57311   -1.65318  -14.07547
      H1     1.21590   -0.88393  -14.64423

