180
frame 12 | Written by MDAnalysis XYZWriter (release 2.4.3)
       H   -18.03345  -16.22053    7.73076
       O   -18.47315  -15.65574    7.04585
      H1   -17.70584  -15.12928    6.75667
       H   -17.87255  -16.98618    5.51543
       O   -17.71260  -17.84900    5.06894
      H1   -18.53422  -18.02333    4.59223
       H   -13.72088   -7.60281   -1.53912
       O   -13.37864   -8.50467   -1.70881
      H1   -12.43123   -8.43168   -1.48939
       H   -15.03801   -6.44436    2.47919
       O   -15.62155   -5.75943    2.91042
      H1   -16.52957   -6.11173    2.72759
       H   -10.26176  -10.31501    9.14600
       O   -10.67691  -10.46230   10.01184
      H1   -10.53736   -9.50773   10.35659
       H   -15.77566  -11.58036    9.81013
       O   -15.13863  -11.22540   10.41972
      H1   -15.60990  -11.16894   11.26329
       H    -8.12420  -12.83025    0.47781
       O    -8.62097  -12.05556    0.72483
      H1    -7.99823  -11.43202    1.01540
       H   -10.64456   -7.39455    0.35420
       O   -10.55689   -7.99918    1.11838
      H1   -10.04111   -8.76207    0.81737
       H   -10.42632  -12.13866    1.40062
       O   -11.40939  -12.11422    1.64153
      H1   -11.30066  -12.16618    2.70051
       H   -11.96136  -17.65741    6.29172
       O   -11.84220  -17.08246    7.05491
      H1   -12.47451  -16.42713    6.82360
       H   -10.02159  -15.52544    4.53374
       O    -9.51330  -14.69851    4.27848
      H1    -8.58434  -15.07306    4.33011
       H   -10.84808  -14.08845    5.89201
       O   -11.74854  -14.40419    5.98076
      H1   -12.21550  -13.60323    6.24947
       H   -10.10713  -12.79021   -1.64750
       O    -9.30701  -12.34150   -1.88442
      H1    -9.04821  -11.96962   -1.01522
       H   -12.25896  -11.98950   -0.57139
       O   -12.71067  -12.31137   -1.37292
      H1   -13.39587  -12.87280   -0.95275
       H   -11.63175  -13.51784   -0.77286
       O   -11.04608  -14.30546   -0.56576
      H1   -11.38456  -14.48122    0.30041
       H   -18.81136   -8.10631    0.98400
       O   -18.64811   -7.34460    0.47718
      H1   -18.80196   -6.56240    1.07778
       H   -13.81012  -17.57862    4.64296
       O   -13.10064  -18.28533    4.59864
      H1   -13.57484  -18.91060    5.14876
       H   -17.38768  -11.67684   -1.57706
       O   -17.23740  -12.58429   -1.53638
      H1   -18.00128  -13.03411   -1.17568
       H   -10.73264   -6.32263    6.39782
       O   -11.69014   -6.56168    6.47267
      H1   -11.96373   -5.77129    5.91605
       H   -16.63488  -13.76348    8.30786
       O   -16.92875  -12.86240    8.64842
      H1   -16.87063  -12.35716    7.85212
       H    -8.15679   -9.68577    4.75156
       O    -9.08178   -9.68021    4.38362
      H1    -9.60398   -9.35627    5.17465
       H   -14.87208  -10.08698   -1.38228
       O   -15.81359  -10.17779   -1.17933
      H1   -15.93989  -11.13806   -1.10461
       H   -14.41483  -13.02389   10.39950
       O   -13.93749  -13.84842   10.29741
      H1   -14.58800  -14.42918   10.74786
       H   -16.68258  -10.31279    5.91204
       O   -17.27025  -11.04015    6.29741
      H1   -17.62696  -10.41150    6.96106
       H   -16.64710   -7.59714    0.29502
       O   -15.69682   -7.54010    0.20897
      H1   -15.45370   -8.39418   -0.17539
       H   -15.12809  -15.13289    8.73139
       O   -15.87523  -15.38742    8.14081
      H1   -15.51735  -16.17138    7.68735
       H   -11.75801  -17.12663    4.09091
       O   -10.84507  -17.23985    3.71287
      H1   -10.62894  -18.13945    3.91371
       H   -18.26691   -9.92618    9.15923
       O   -18.32535   -9.48728    8.28599
      H1   -19.07510   -8.91721    8.42749
       H   -10.65470  -15.82281    7.59684
       O   -10.03812  -15.29206    8.09759
      H1   -10.35723  -14.39213    7.94086
       H   -15.56921  -18.06614    8.05390
       O   -14.65757  -18.01219    7.82768
      H1   -14.16502  -17.86728    8.65915
       H   -18.23294   -9.14967    3.73255
       O   -17.40133   -8.68480    3.59661
      H1   -17.06766   -9.03668    2.76361
       H   -16.11213   -8.54517    9.88507
       O   -15.11239   -8.53708   10.02706
      H1   -14.93778   -9.47337    9.74264
       H   -14.93052  -13.53510    0.55951
       O   -14.80834  -13.43492   -0.39562
      H1   -15.59898  -13.60921   -0.90550
       H   -16.04118   -6.88454    7.28606
       O   -16.23686   -5.97431    7.21378
      H1   -15.96607   -5.52467    8.05248
       H   -16.81155  -18.82161    0.22962
       O   -17.45866  -18.56397    0.84366
      H1   -17.11652  -17.77608    1.30679
       H   -19.87175  -13.45980    9.64737
       O   -19.62728  -13.10797    8.83850
      H1   -18.63230  -13.27258    8.85290
       H    -9.91141  -11.47582    4.05381
       O   -10.57179  -12.10443    4.37282
      H1   -10.17802  -12.96297    4.34919
       H   -18.86131  -10.49895    0.38103
       O   -18.45393  -10.06843    1.16253
      H1   -18.96934  -10.50963    1.84637
       H   -12.64953  -10.40468    1.10216
       O   -13.47696   -9.95416    0.93586
      H1   -13.20443   -9.42738    0.16683
       H   -15.08976   -8.71827    6.14506
       O   -16.05668   -8.56511    6.04649
      H1   -16.08095   -8.20788    5.11294
       H    -9.98511  -17.00763    1.98968
       O   -10.29726  -17.04792    1.06362
      H1    -9.49343  -17.24375    0.55063
       H   -13.89689  -15.61626    3.15602
       O   -14.15354  -15.51227    4.07945
      H1   -14.64883  -14.66790    4.06705
       H   -11.62761  -11.55174    5.70751
       O   -12.38100  -11.41238    6.32488
      H1   -13.05524  -11.89922    5.79757
       H   -16.78165  -16.79772   -0.54998
       O   -16.76533  -16.83935   -1.49612
      H1   -16.08435  -17.53174   -1.64276
       H   -10.54910  -12.05558    7.69340
       O    -9.76461  -12.57623    7.77274
      H1    -9.61663  -12.73304    8.73068
       H   -14.47019  -12.30237    3.83457
       O   -14.51019  -12.49358    4.80348
      H1   -15.38312  -12.92725    4.86375
       H   -12.58697   -8.60422    2.61049
       O   -12.55822   -7.94960    3.32316
      H1   -12.80852   -8.48708    4.10100
       H   -11.67876   -5.89961    2.84114
       O   -10.95003   -5.24951    2.89862
      H1   -11.06332   -4.89961    3.80319
       H   -18.23378   -5.51560    3.89451
       O   -18.20563   -6.02634    3.11001
      H1   -18.32660   -6.92649    3.48013
       H   -13.50887  -17.02971   -1.76802
       O   -13.72775  -17.43415   -0.87333
      H1   -12.95866  -18.03911   -0.80140
       H   -13.49721  -16.54540    0.63053
       O   -13.29734  -16.27461    1.53382
      H1   -12.32185  -16.56034    1.56482
       H   -17.68149  -13.62625    4.48353
       O   -16.94466  -13.64340    5.19754
      H1   -17.00870  -12.76402    5.60536
       H   -12.90980   -8.21719    6.41998
       O   -13.33117   -8.96251    5.98205
      H1   -12.94783   -9.69861    6.50115
       H   -11.86053  -13.31922   10.20610
       O   -10.91228  -13.18843   10.33051
      H1   -10.86661  -12.25449   10.60467
       H   -16.73599  -10.66131    1.24697
       O   -15.94633  -10.97443    1.69926
      H1   -15.29301  -10.43519    1.22186
       H   -10.80296   -9.41821    7.53553
       O    -9.95272   -9.54573    7.16764
      H1    -9.48999   -8.69884    7.38395
       H    -9.29670   -6.92845    3.32051
       O    -8.54938   -7.21104    3.86264
      H1    -8.88128   -8.13996    4.00989
       H   -15.68811  -16.02012    3.03969
       O   -16.47241  -16.47586    2.78839
      H1   -16.72193  -16.97223    3.53122
       H   -15.83188  -12.53965    2.09459
       O   -15.79064  -13.52777    2.34032
      H1   -16.59699  -13.84532    1.97729
       H   -18.31599  -15.18985    2.80442
       O   -18.61254  -14.30079    2.72856
      H1   -19.48764  -14.47072    2.98548

