180
frame 6 | Written by MDAnalysis XYZWriter (release 2.4.3)
       H   -16.36218   -7.36606   -2.75492
       O   -15.92412   -7.23129   -3.61364
      H1   -16.37864   -7.81076   -4.25523
       H   -11.84102   -7.15465   -1.55115
       O   -11.92492   -7.88242   -2.21388
      H1   -11.06328   -7.87240   -2.63034
       H   -15.77079   -6.72485    1.60685
       O   -15.58133   -5.98359    2.16559
      H1   -14.97404   -6.45630    2.78308
       H    -8.86436   -9.81603    0.75640
       O    -9.18725  -10.14462    1.59346
      H1    -9.53965   -9.35643    2.06700
       H   -12.25267  -14.11018    1.23282
       O   -12.67556  -13.67044    1.97867
      H1   -11.90303  -13.19020    2.33467
       H    -8.22136  -10.30245   -2.70670
       O    -7.64717  -11.04917   -3.02181
      H1    -7.98056  -11.80847   -2.47607
       H   -16.60510   -3.40903   -0.57859
       O   -16.92049   -3.09191   -1.39129
      H1   -17.88763   -2.88546   -1.26774
       H   -11.03953  -12.08348   -1.99315
       O   -11.30361  -12.65209   -2.73531
      H1   -11.90456  -13.26276   -2.29969
       H   -13.12159   -3.31972    0.73972
       O   -12.14558   -3.29822    0.53155
      H1   -11.64587   -3.41533    1.33843
       H   -14.26820   -7.34154    4.99891
       O   -14.78979   -6.50849    4.87541
      H1   -15.32477   -6.50623    5.66659
       H   -10.21847  -14.02239   -2.59992
       O    -9.76343  -14.87683   -2.54604
      H1    -9.82528  -15.11718   -1.60050
       H   -17.62629  -12.48261   -3.26045
       O   -17.81861  -13.10771   -2.51469
      H1   -18.22098  -12.44971   -1.90318
       H    -9.49643   -9.09385    4.95558
       O    -9.91329   -8.61369    4.23611
      H1   -10.84888   -8.64090    4.33328
       H   -13.14548   -9.46957   -1.48077
       O   -14.00021   -9.88289   -1.30207
      H1   -14.04587  -10.78971   -1.61940
       H   -19.36746   -5.79577    6.97806
       O   -19.22729   -6.71324    6.80256
      H1   -19.22889   -6.69725    5.81190
       H   -13.40955   -8.66426   -3.33262
       O   -13.78369   -8.84562   -4.22238
      H1   -14.52963   -8.21436   -4.14479
       H   -17.09436  -10.13570    7.87324
       O   -17.34149  -10.63210    7.10474
      H1   -17.77834   -9.87130    6.57854
       H   -16.02323   -9.74492    1.29734
       O   -15.47151   -8.95043    1.07295
      H1   -15.00356   -9.17405    0.23461
       H   -18.01954  -11.73421   -5.12092
       O   -17.13099  -11.74416   -4.69384
      H1   -17.34208  -10.91714   -4.11756
       H   -15.33229   -3.00209    2.06808
       O   -14.91744   -2.62317    1.28618
      H1   -15.33466   -1.76504    1.23450
       H   -16.12387   -9.99523    5.72043
       O   -15.67521   -9.41876    5.15486
      H1   -15.60895   -9.94731    4.33272
       H   -15.36861  -12.60613   -0.66561
       O   -15.41884  -12.19598   -1.59761
      H1   -16.18864  -12.63201   -1.99965
       H    -8.82667   -7.97103   -2.60407
       O    -9.22358   -8.78153   -2.94660
      H1    -9.16403   -8.59024   -3.88800
       H   -11.65382  -12.71808   -4.89698
       O   -11.85967  -13.40955   -5.53062
      H1   -12.77506  -13.23974   -5.74829
       H   -18.03394  -10.14226   -1.02143
       O   -18.50760  -10.97042   -1.00790
      H1   -19.13720  -10.80896   -1.71588
       H   -12.03115   -9.30784   -5.08600
       O   -11.31113   -9.15196   -5.74727
      H1   -10.88746  -10.02304   -5.75643
       H   -10.73939  -10.93465    2.29179
       O   -11.09847  -11.46602    3.04571
      H1   -10.47612  -12.15121    3.30382
       H    -9.70562   -6.03162   -1.63255
       O    -8.83612   -6.20639   -1.95197
      H1    -8.31329   -6.42827   -1.19187
       H   -17.49866  -11.57794    1.11369
       O   -16.81634  -11.39739    1.77317
      H1   -17.40845  -11.40662    2.57969
       H   -10.39620  -10.77940   -0.28975
       O   -11.00354  -10.50904   -0.96296
      H1   -10.73575   -9.61337   -1.23693
       H   -14.10205   -9.16455    7.30700
       O   -13.76995   -8.23513    7.41484
      H1   -14.68760   -7.81336    7.41534
       H   -18.25955   -5.41951    3.69102
       O   -18.27870   -5.38480    2.70541
      H1   -17.36060   -5.50246    2.52743
       H   -13.56601  -15.16287    2.73799
       O   -13.89652  -15.56833    3.59177
      H1   -14.37605  -14.79330    3.90440
       H   -14.01994  -13.77243   -3.24978
       O   -13.65671  -14.32944   -2.55452
      H1   -14.06862  -13.89599   -1.78084
       H   -12.24382  -11.45899    6.18110
       O   -12.47353  -12.18088    5.57251
      H1   -11.60669  -12.34945    5.15533
       H   -15.56136  -15.48765   -1.33865
       O   -15.26608  -15.73785   -0.41837
      H1   -15.64533  -14.99363    0.05405
       H   -14.70450  -12.98207    5.45127
       O   -15.39015  -13.62276    5.14162
      H1   -15.99547  -13.00199    4.62213
       H   -12.19374   -7.68541    2.67563
       O   -12.37773   -7.18060    1.85451
      H1   -12.97418   -7.74953    1.34958
       H   -12.04880   -4.10081    6.69418
       O   -12.07811   -4.85840    6.16702
      H1   -13.00632   -4.89347    5.90568
       H   -17.81833   -7.74817   -0.84357
       O   -16.90940   -7.51745   -0.83551
      H1   -16.49651   -8.09893   -0.17854
       H   -11.67327   -5.71787    3.30457
       O   -11.36921   -4.89861    3.64591
      H1   -11.55698   -5.01578    4.58747
       H   -17.65458   -7.48172    2.78530
       O   -17.58126   -8.38898    3.14785
      H1   -16.84610   -8.43041    3.81515
       H   -18.84273   -5.04608   -2.44439
       O   -19.65403   -5.19269   -1.93924
      H1   -19.28671   -5.61199   -1.13648
       H   -19.00152   -8.18247   -2.85727
       O   -19.36282   -8.00614   -1.96654
      H1   -19.65697   -7.06955   -2.11458
       H   -15.57057   -2.86030   -5.23335
       O   -15.31202   -3.25911   -4.38323
      H1   -15.69813   -4.12057   -4.39267
       H   -11.38076   -4.90835   -1.88481
       O   -11.45527   -5.46499   -1.05993
      H1   -11.60748   -4.88405   -0.31697
       H   -17.86975  -13.12645    3.61942
       O   -17.94046  -12.26848    4.09672
      H1   -18.78804  -12.33292    4.58835
       H   -12.39765   -9.17071    5.32334
       O   -12.60653   -8.73868    4.45181
      H1   -12.80220   -9.58438    4.03399
       H   -13.48315  -11.38064    2.65923
       O   -14.12805  -10.71454    2.98974
      H1   -14.35473  -10.10105    2.28222
       H   -14.82512   -3.87245    4.72682
       O   -14.93123   -3.82245    3.73731
      H1   -15.11509   -4.73176    3.59788
       H   -15.98327   -8.99776   -2.68576
       O   -16.61926   -9.73051   -2.62209
      H1   -16.28547  -10.18547   -1.84633
       H   -14.43008  -11.44449   -5.60577
       O   -14.14569  -10.75669   -6.29104
      H1   -14.15387   -9.92121   -5.82764
       H   -12.08356   -9.09145    7.29565
       O   -11.69535   -9.84388    6.81308
      H1   -10.82216   -9.89577    7.30150
       H    -9.57592   -5.72998    3.97438
       O    -8.90466   -5.84876    4.65033
      H1    -8.85270   -6.82852    4.80586
       H   -18.18277   -8.74072   -5.16962
       O   -18.66979   -9.01499   -4.41909
      H1   -19.56972   -9.05258   -4.86034
       H   -16.84454   -5.73821   -3.16453
       O   -17.41098   -4.99793   -3.29355
      H1   -17.06179   -4.28651   -2.72056
       H   -14.16955  -13.38362    1.37246
       O   -15.05340  -13.27187    0.84136
      H1   -15.56034  -12.75896    1.48957
       H   -17.31935  -15.31740    2.48457
       O   -17.98721  -14.65636    2.69599
      H1   -18.63088  -15.20553    3.14460
       H   -16.68441   -9.15163   -6.66550
       O   -16.16555   -8.45334   -6.26160
      H1   -16.45593   -7.69782   -6.73455
       H   -15.71132  -12.69218   -4.93547
       O   -14.83207  -13.10097   -4.96622
      H1   -14.91186  -13.68448   -5.75526

