180
frame 4 | Written by MDAnalysis XYZWriter (release 2.4.3)
       H    16.11884   -5.69846   -4.24936
       O    16.58669   -4.97083   -3.92067
      H1    17.23047   -5.32150   -3.27968
       H    14.13344    2.46462   -0.55508
       O    14.43175    1.59830   -0.19953
      H1    15.40685    1.70320   -0.37805
       H    16.19541    7.64999   -9.33831
       O    17.06890    7.28960   -9.17652
      H1    17.16467    6.42467   -9.67866
       H    13.23539   -4.35309   -5.26263
       O    13.08678   -5.24582   -5.57806
      H1    12.33562   -5.54378   -5.02694
       H    13.44244    2.05029   -7.08505
       O    12.98025    1.20975   -6.99660
      H1    13.11180    0.80174   -7.85291
       H    13.57493    7.36133   -5.10390
       O    12.75609    7.67973   -4.67679
      H1    13.24535    8.34071   -4.07602
       H    18.18179    0.16604  -11.59744
       O    18.13801    1.08890  -11.80941
      H1    18.98800    1.39775  -11.43928
       H    13.15353   -1.60079  -11.12802
       O    13.72584   -0.90741  -11.42684
      H1    14.38757   -0.89481  -10.68873
       H    19.10382    9.26676   -8.04721
       O    19.27476    9.63204   -8.92826
      H1    18.40011    9.88654   -9.19678
       H    16.73802    8.77846   -4.65396
       O    15.90000    9.28235   -4.76305
      H1    15.38753    9.26350   -3.96518
       H    17.32739   -1.17692  -10.15492
       O    18.15157   -1.46860  -10.49969
      H1    18.15331   -2.48276  -10.37719
       H    15.87177   -0.13875   -1.81450
       O    15.39902   -0.74107   -2.36094
      H1    15.18179   -0.26922   -3.16152
       H    14.02168    4.79819   -1.05219
       O    13.62099    4.09136   -1.60662
      H1    12.68637    4.19631   -1.48988
       H    19.08462   -3.79547   -6.14315
       O    18.30060   -4.29224   -6.45142
      H1    17.85122   -4.45339   -5.64011
       H    11.43063    5.75114   -7.08261
       O    12.07269    5.89370   -7.76925
      H1    12.77099    5.31218   -7.43726
       H    14.81184    4.62070   -4.94406
       O    14.75136    3.83446   -4.40696
      H1    14.42307    4.16571   -3.54510
       H    18.59736   -4.01654   -1.10054
       O    18.63543   -3.27743   -0.47605
      H1    18.29886   -2.59175   -1.05663
       H    16.94451    2.09265  -10.13732
       O    16.46305    2.06776   -9.26128
      H1    17.12642    2.50425   -8.63635
       H    13.39323   -2.27196   -1.16514
       O    13.72799   -1.56798   -0.58570
      H1    14.26956   -1.08795   -1.21685
       H    12.35676    0.57312   -0.73150
       O    11.62076    0.69070   -0.06756
      H1    11.87735    1.57512    0.30545
       H    11.53246    2.09533  -10.33642
       O    11.73034    2.77593  -10.98164
      H1    12.36961    3.37257  -10.57103
       H    17.44841   -0.12215   -6.56270
       O    17.42786   -1.04557   -6.30146
      H1    16.77272   -1.50069   -6.81875
       H    15.21751    5.34130  -12.93879
       O    14.90261    6.22163  -13.13383
      H1    14.39677    6.07602  -13.94226
       H    16.78382    3.82443  -12.09022
       O    17.22018    4.57041  -11.69786
      H1    17.96607    4.51315  -12.31615
       H    16.16153    0.20083   -9.19654
       O    15.82048   -0.61594   -9.55998
      H1    15.74297   -1.18393   -8.76175
       H    15.26147    5.19997   -6.72048
       O    14.81240    6.02958   -6.59302
      H1    15.48831    6.63384   -6.88513
       H    15.46836    2.42269    1.10025
       O    15.81667    3.22116    1.55001
      H1    16.72145    3.13304    1.51974
       H    17.37539   -1.42200  -14.73221
       O    17.78724   -2.29634  -15.02611
      H1    17.37992   -2.86101  -14.35955
       H    15.11828   -5.89764   -9.30749
       O    15.76463   -5.73897   -8.56127
      H1    16.16352   -4.92866   -9.01656
       H    17.95004   -4.03618   -8.34630
       O    17.72035   -3.95956   -9.31415
      H1    18.56900   -4.11897   -9.81135
       H    16.60884    6.83923   -2.71174
       O    16.08203    6.02708   -2.60617
      H1    15.52928    6.34113   -1.86389
       H    16.02543    2.50362   -3.13951
       O    16.64870    1.84085   -2.76279
      H1    17.50466    1.93860   -3.29354
       H    16.26119   -2.29136  -12.90573
       O    16.26523   -3.26889  -13.10516
      H1    15.35107   -3.35184  -13.46854
       H    11.43916    0.98005   -6.25936
       O    10.51107    1.18184   -5.93429
      H1     9.97481    0.87312   -6.68698
       H    15.06022   -3.52186   -7.98007
       O    15.65125   -2.92758   -7.39623
      H1    16.38382   -3.36958   -7.05432
       H    12.96310    1.88098  -11.94695
       O    13.72296    1.59435  -12.47722
      H1    13.79165    0.60391  -12.30577
       H    14.96496    7.53594  -11.45778
       O    14.90898    8.19654  -10.72928
      H1    14.20495    8.72499  -11.23478
       H    19.09394    3.05014    1.40369
       O    18.63546    2.63377    2.16461
      H1    19.12433    1.87990    2.46900
       H    12.57819   -2.06222   -4.02870
       O    12.26331   -2.86768   -4.41867
      H1    11.57082   -2.59212   -5.04901
       H    12.78016   -4.57970   -7.35192
       O    12.82624   -3.84496   -7.99983
      H1    12.80172   -4.23974   -8.87116
       H    18.40285    4.76360  -10.21370
       O    19.20975    5.10923   -9.82217
      H1    19.11804    4.80874   -8.88501
       H    11.36723   -2.94700   -7.29316
       O    10.52027   -2.80369   -6.78820
      H1    10.20355   -1.87788   -6.99704
       H    18.89856   -6.40161   -6.79178
       O    19.29741   -7.11438   -7.32233
      H1    19.18752   -8.00951   -6.87449
       H    16.15132   -4.00394   -1.78650
       O    15.66800   -4.18974   -0.99408
      H1    15.89739   -3.38032   -0.53426
       H    13.39496   -0.10454   -5.17719
       O    13.19492   -0.26664   -4.22337
      H1    12.41940    0.29886   -4.11729
       H    19.38435    1.59181   -7.19898
       O    18.57020    1.45331   -6.67902
      H1    18.94748    1.67714   -5.76093
       H    19.32469    2.94886   -4.23784
       O    19.09621    2.03508   -4.06770
      H1    19.83586    1.52120   -4.35438
       H    17.10196   -1.16834   -2.60504
       O    17.99181   -1.41811   -2.43171
      H1    18.31287   -1.28224   -3.30349
       H    12.72357    5.48059   -9.76463
       O    13.19275    5.01737  -10.46542
      H1    13.14908    5.57086  -11.25815
       H    18.80706    4.12212  -14.04968
       O    19.18936    4.94080  -13.58810
      H1    18.70744    5.66168  -14.14134
       H    18.01759    7.78275   -7.58026
       O    18.48915    8.14282   -6.80278
      H1    19.06686    7.45818   -6.45473
       H    10.37928    1.00988   -3.02288
       O    10.29787    0.22626   -3.54235
      H1    10.26408    0.69100   -4.43757
       H    13.96049    4.14625   -9.03425
       O    14.34845    3.69684   -8.25178
      H1    15.19444    3.35770   -8.62963
       H    19.27916   -1.29014   -8.97626
       O    19.61570   -1.14877   -8.13631
      H1    18.89578   -1.13542   -7.46353
       H    17.46322    5.02202   -2.17026
       O    18.30450    4.63926   -1.77093
      H1    18.29361    4.99703   -0.89341
       H    18.15835    4.79762   -7.20755
       O    18.00365    3.96101   -7.70286
      H1    18.41592    3.25590   -7.08332
       H    16.60474    0.63932  -13.53429
       O    16.63825    0.06576  -14.32195
      H1    17.20901    0.53628  -14.96822
       H    15.69998    3.01807  -14.35897
       O    15.71009    2.99576  -13.38987
      H1    14.92351    2.35788  -13.31007
       H    18.96439    7.89949   -3.47369
       O    18.02599    7.82707   -3.22227
      H1    18.23149    7.98712   -2.23840
       H    17.73943    1.40302    0.79127
       O    17.15559    1.23266   -0.00177
      H1    17.51765    1.79479   -0.70911

