180
frame 4 | Written by MDAnalysis XYZWriter (release 2.4.3)
       H     8.65078    9.60754    1.71796
       O     8.79943    9.27817    2.65311
      H1     8.80914   10.11621    3.12074
       H     4.60705   11.10538   15.02188
       O     5.42080   11.37381   14.48342
      H1     5.91043   11.96084   15.05825
       H     7.41001   16.30020    2.76134
       O     7.05105   15.39278    2.91441
      H1     7.83270   14.83008    3.18138
       H    11.40608   13.46661   11.99436
       O    10.74357   13.56842   11.29146
      H1     9.93145   13.61713   11.79975
       H    10.01362   10.05706   10.77252
       O     9.48964    9.59007   11.46302
      H1     8.65595    9.50232   10.99588
       H     9.01561    8.37415    7.19503
       O     9.88064    7.87280    7.18854
      H1     9.85340    7.40777    8.04573
       H     2.35096   11.09093   14.13008
       O     2.34156   11.13076   13.18069
      H1     2.33792   10.20131   12.90548
       H     3.88579   11.92723   12.60599
       O     4.37039   12.38992   11.91472
      H1     4.18152   11.74436   11.22272
       H     3.94085    8.57409   10.02380
       O     3.77365    8.97773   10.95261
      H1     3.90653    8.11338   11.44173
       H    10.55539    7.33366   13.40529
       O     9.70110    7.75093   13.69998
      H1     9.62092    8.31943   12.96624
       H     6.50689   17.38927    5.08727
       O     6.32433   17.97160    4.31954
      H1     7.16451   18.15885    3.89216
       H     5.38350    6.84087   12.55227
       O     4.42838    6.81297   12.67525
      H1     4.20634    6.05391   12.09779
       H    11.50508   16.79946    5.23627
       O    12.30659   17.33371    5.26050
      H1    11.97119   18.04184    5.83203
       H    14.65564   13.53133   11.92996
       O    14.20593   13.59948   11.06543
      H1    14.96231   13.46492   10.50049
       H     9.47378   10.48456   12.99678
       O     9.00820   10.90816   13.75437
      H1     8.90496   11.83436   13.46816
       H    13.36620   10.05310   11.99809
       O    12.52402    9.65241   11.66129
      H1    12.28500   10.31869   11.01293
       H    11.30171   16.46996   11.23513
       O    10.52670   16.95079   11.59784
      H1     9.84519   16.47389   11.10515
       H     8.68506   16.83535   14.32077
       O     9.53537   16.32715   14.28666
      H1     9.94481   16.75378   13.51480
       H     7.18716    7.90144   12.55500
       O     7.53085    7.00075   12.45351
      H1     8.30172    7.13887   12.99989
       H     8.55429   13.48007    4.51070
       O     9.10528   13.79023    3.78744
      H1     9.62976   14.48418    4.26458
       H     7.60668   13.81458   13.41867
       O     8.57282   13.68970   13.68050
      H1     8.80276   14.66296   13.66462
       H     5.98266   11.79716    9.52196
       O     5.26182   11.66480    8.96807
      H1     5.64592   11.05346    8.29794
       H     9.48700   11.83998    4.38220
       O     9.63729   11.02082    4.87054
      H1    10.47036   10.74441    4.45822
       H     3.51808   11.73252    7.88225
       O     2.81212   11.50682    7.20336
      H1     2.70304   12.39194    6.85314
       H     8.80719   13.96057    8.39526
       O     8.85087   14.86531    8.18224
      H1     7.96055   15.14713    7.97242
       H    13.32235   15.28921   11.22388
       O    13.38373   16.25284   11.22766
      H1    14.31446   16.33801   10.94507
       H     6.31753   17.29125    7.26769
       O     6.55761   16.52563    6.71296
      H1     5.77982   15.88160    6.74445
       H     5.52713   13.75099    6.20627
       O     4.63197   14.11991    6.35076
      H1     4.42213   14.39125    5.41558
       H     7.15727   16.91593   12.96208
       O     7.00283   17.23707   13.90384
      H1     6.05453   17.35592   14.06361
       H     9.16911   11.67608    9.23844
       O     8.51619   11.97542    8.53006
      H1     7.81062   12.41587    9.12977
       H    10.04902   19.49268    9.64786
       O     9.41820   18.84752    9.80821
      H1     9.78443   18.26097   10.44904
       H     6.29366   17.90138    9.48056
       O     6.78767   18.33957    8.73639
      H1     7.72918   18.36573    8.92918
       H     9.59608   15.69106    6.47348
       O    10.24231   15.55026    5.71655
      H1    10.78206   14.82865    6.08050
       H     8.53058    8.61068   15.21341
       O     7.57907    8.64719   15.51004
      H1     7.47057    9.51044   15.04140
       H     2.33034   12.56556   11.36008
       O     1.89115   12.96441   10.62956
      H1     1.02101   12.60545   10.76949
       H     7.72097   12.68800    6.52909
       O     7.26922   13.33343    5.92770
      H1     6.77283   12.68178    5.35083
       H     4.19039   10.59724    5.99727
       O     5.05202   10.13024    6.09889
      H1     4.93480    9.16062    6.18089
       H     5.12341    7.10395    7.67429
       O     4.39962    7.16308    8.31299
      H1     4.59345    6.41945    8.94479
       H     6.95034   12.91690   11.68925
       O     6.95243   13.01894   10.68060
      H1     6.07573   13.50903   10.68647
       H    10.93132    8.39546    5.69473
       O    11.54452    8.63385    4.98768
      H1    11.49078    7.91039    4.36227
       H     4.17496   14.30170    8.34142
       O     4.20007   14.70456    9.25437
      H1     3.43701   14.22272    9.60999
       H    11.59559   16.06946    8.00639
       O    11.79859   16.84162    8.53632
      H1    11.05269   17.39636    8.33386
       H    10.77124    6.85318   10.36764
       O    10.29017    6.57365    9.59953
      H1     9.37417    6.52350    9.95514
       H    12.82286   13.86749   13.92024
       O    12.38911   13.22787   13.30160
      H1    12.92145   12.47441   13.45202
       H     3.62311   16.04997    4.03388
       O     4.18750   15.30624    3.79673
      H1     5.02671   15.72347    3.49188
       H    13.86273   11.54316    8.28515
       O    12.93428   11.66825    7.95611
      H1    12.88386   10.90090    7.41636
       H    12.74840   13.03489    7.18885
       O    12.77659   13.78053    6.54514
      H1    13.33668   14.41343    7.06944
       H     7.06496    9.21987    8.71775
       O     7.27237    9.17947    9.63945
      H1     7.55988    8.25018    9.77306
       H     3.26741    7.90969    6.76515
       O     2.39970    8.21511    6.36688
      H1     2.68930    8.88666    5.75257
       H     6.03347    6.83196    4.80616
       O     5.62775    6.86305    5.70414
      H1     5.38356    5.95050    5.56031
       H     7.93743   14.64465   11.08046
       O     8.22384   15.54160   10.75941
      H1     8.70401   15.36704    9.94584
       H     5.02409   16.27617   10.19260
       O     5.61766   16.95568   10.61103
      H1     6.43511   16.47359   10.48017
       H     5.40845    9.29327   11.90960
       O     6.00628    9.37609   12.66242
      H1     5.61943   10.13170   13.16239
       H     7.97477    5.27115    8.22753
       O     7.69972    5.92387    8.85703
      H1     7.01923    5.56025    9.42994
       H     5.24560   13.95995   12.63186
       O     6.12850   14.50199   12.75996
      H1     5.81691   15.35896   13.13647
       H     8.46974   10.20906    6.03448
       O     8.00594    9.84623    6.81832
      H1     8.31787   10.54590    7.41254
       H     1.83249    8.95172   10.43096
       O     0.86944    9.21143   10.50511
      H1     0.67752    9.16795    9.60790
       H    10.79821   12.15397   10.36427
       O    10.87187   11.35260    9.86559
      H1    11.40573   11.63637    9.06483
       H     8.74778   13.20959   15.79529
       O     8.31874   13.41484   16.62732
      H1     8.33993   12.64173   17.16812
       H     5.99060   11.50664    3.16990
       O     6.53635   11.44167    3.98225
      H1     6.01830   10.84492    4.59180

