180
frame 7 | Written by MDAnalysis XYZWriter (release 2.4.3)
       H   -11.39692   -3.01526   -3.75387
       O   -12.13916   -2.90887   -3.10184
      H1   -12.97929   -3.14484   -3.54797
       H   -10.71981   -2.95836    0.15885
       O   -10.13872   -2.29971   -0.24231
      H1    -9.29673   -2.72529   -0.07312
       H   -11.54008    3.05338   -1.93394
       O   -11.65854    2.52309   -1.13814
      H1   -12.31915    1.94785   -1.54744
       H   -13.17610    2.24491    3.28888
       O   -14.02967    2.44888    3.70596
      H1   -14.22235    3.33672    3.40958
       H   -14.79288    3.53494   -0.63496
       O   -14.58798    3.41901    0.33340
      H1   -15.45440    3.31850    0.74775
       H   -10.92426   -2.13301    8.45869
       O   -10.52052   -2.45891    7.59564
      H1   -10.08644   -3.28810    7.73898
       H   -13.02921    0.39785   -0.15327
       O   -13.85332    0.76512   -0.50361
      H1   -13.87986    1.63753   -0.12605
       H   -12.94566    3.84636    6.37604
       O   -13.75621    3.26516    6.25595
      H1   -13.58536    3.02342    5.28789
       H   -15.88220   -1.72624   -0.07746
       O   -16.25343   -1.94263   -0.97131
      H1   -17.17938   -2.09968   -0.76806
       H   -12.95559   -3.00733    1.30116
       O   -12.22585   -3.65170    1.12760
      H1   -12.17381   -4.14507    2.04092
       H    -9.61508    2.80827    7.57063
       O    -8.85948    2.92860    8.13062
      H1    -8.75065    2.08046    8.57747
       H    -6.59204   -1.45472    3.31482
       O    -5.83464   -1.49846    2.68338
      H1    -6.26536   -1.70198    1.88707
       H   -11.39765    0.74084    7.48639
       O   -11.42857    1.69921    7.73288
      H1   -12.36241    1.89097    7.40386
       H   -11.13418   -1.81127    3.83249
       O   -10.23767   -2.14337    3.87686
      H1   -10.37355   -2.94926    3.37761
       H   -11.29917    1.25641    0.35974
       O   -11.57888    0.43043    0.79467
      H1   -10.70831    0.06421    0.92823
       H   -10.24353    5.48100    4.01717
       O    -9.41001    5.03520    3.98446
      H1    -9.37732    4.68618    3.09366
       H    -9.00292    1.52771    4.61146
       O    -9.87799    1.07330    4.63668
      H1    -9.73633    0.41256    5.27796
       H    -9.55944   -0.50352    2.91260
       O    -9.22914   -0.26972    1.99587
      H1    -8.94517   -1.12987    1.59705
       H   -17.69823    0.88986   -0.66637
       O   -17.67505    0.93612    0.30704
      H1   -16.83756    0.57433    0.63965
       H    -7.06688   -3.36914    0.92382
       O    -7.45516   -2.58407    0.51658
      H1    -6.78460   -2.49379   -0.18874
       H    -9.72380   -0.95543   -3.12484
       O    -9.06745   -1.23951   -3.75067
      H1    -8.27530   -0.74574   -3.52316
       H   -14.69042   -2.70874    2.49336
       O   -14.72659   -2.04795    1.71432
      H1   -14.82689   -1.22708    2.19209
       H   -12.49562   -0.57837    5.23072
       O   -12.46868   -0.95926    6.11336
      H1   -11.67270   -1.38524    6.40101
       H    -8.10600    6.23158    3.59472
       O    -7.22241    6.52292    3.28474
      H1    -6.94631    5.71757    2.87185
       H   -14.75081    0.83841    1.09922
       O   -15.30299    0.73825    1.85431
      H1   -14.88192    1.40589    2.47059
       H   -17.54365    3.43973    1.81523
       O   -17.08693    3.67982    0.96847
      H1   -17.21021    2.88905    0.47936
       H   -15.79541    2.17564    6.81122
       O   -16.68526    1.80328    6.82187
      H1   -17.15475    2.43152    7.41495
       H   -12.21750    4.22257   -4.23965
       O   -11.95870    3.67735   -3.51731
      H1   -11.16692    3.25464   -3.77568
       H    -4.65353   -0.82226    6.33018
       O    -5.58032   -0.50901    6.23916
      H1    -5.61199    0.23036    5.64411
       H   -11.51078    1.38117    2.22866
       O   -11.42900    2.24578    2.63701
      H1   -10.85786    2.09567    3.38548
       H    -6.47124   -4.41719    2.64661
       O    -7.33910   -4.64610    2.28595
      H1    -7.91038   -4.58941    3.08245
       H   -15.65068   -0.72707   -2.12456
       O   -15.40096    0.01187   -2.65859
      H1   -14.67279    0.32876   -2.13637
       H    -6.88473    2.01619   -2.17121
       O    -7.52350    1.44839   -1.67625
      H1    -7.21065    1.62594   -0.78373
       H   -14.70219    5.03102    0.59426
       O   -14.73866    5.95692    0.84624
      H1   -13.77633    6.19103    0.70409
       H   -18.57194    0.43030    4.75529
       O   -18.18612   -0.09407    4.00590
      H1   -17.25730   -0.02618    4.15876
       H    -9.31073    4.07109    0.47072
       O    -9.71845    4.25891    1.37564
      H1   -10.19355    3.47456    1.72249
       H    -8.36187    2.87779   -1.39783
       O    -8.57454    3.76492   -1.05191
      H1    -8.78704    4.29571   -1.83285
       H   -15.73099    4.48165    3.80445
       O   -14.88783    4.88328    3.57257
      H1   -15.12429    5.21381    2.69461
       H   -13.34657   -0.98335    3.08297
       O   -12.38917   -0.73382    3.24830
      H1   -12.25662   -0.45356    2.30310
       H   -12.14714   -5.29156    3.20828
       O   -11.61812   -4.58547    3.63028
      H1   -12.05557   -4.55959    4.49032
       H   -10.31678    4.30069    5.78728
       O   -10.82487    4.55080    6.54595
      H1   -10.47490    5.39844    6.80122
       H    -8.08799    6.60404    1.27553
       O    -8.06981    6.65133    0.29301
      H1    -8.32766    7.59849    0.19345
       H   -10.72135    7.57162    4.24139
       O   -11.36512    6.89474    3.91229
      H1   -11.97029    6.79968    4.70870
       H   -11.82847    6.97527    0.18111
       O   -12.47260    7.68234   -0.13236
      H1   -12.48793    7.42592   -1.06554
       H   -11.51388   -4.03617   -2.21334
       O   -10.95358   -4.71974   -1.83346
      H1   -11.27413   -4.76717   -0.93868
       H    -8.32949   -1.70517    4.85195
       O    -7.39963   -1.90416    4.69135
      H1    -6.92970   -1.36687    5.38240
       H   -14.39720    6.81709    5.81630
       O   -13.52954    6.30736    5.73073
      H1   -14.01233    5.62132    5.13223
       H   -15.69117   -3.30547    4.63860
       O   -15.09899   -3.74877    3.99279
      H1   -15.50179   -4.66856    4.03885
       H    -6.59819    1.26213    1.27092
       O    -7.45365    1.62915    1.08102
      H1    -8.04027    1.02185    1.54491
       H   -15.32489   -2.83186    7.58672
       O   -14.56392   -3.17904    7.03659
      H1   -14.09912   -2.42974    6.81164
       H   -11.28678    4.66048    0.33557
       O   -12.07814    5.10234    0.00778
      H1   -12.68502    4.33167   -0.22065
       H    -5.25397   -0.02143    1.79958
       O    -4.94582    0.58316    1.09345
      H1    -4.10580    0.80744    1.48566
       H    -8.71161   -0.19714    7.38278
       O    -8.99892   -0.54267    6.53352
      H1    -9.28472   -1.43900    6.70482
       H   -11.07754   -0.92923   -1.10893
       O   -11.49116   -0.54465   -1.90950
      H1   -11.93009   -1.33640   -2.27317
       H   -13.79430    4.12958   -2.40748
       O   -14.75544    3.97790   -2.28226
      H1   -15.06585    3.50864   -3.05806
       H   -10.06917    6.46581   -2.40369
       O    -9.20588    6.03716   -2.37137
      H1    -8.81088    6.22848   -1.46919
       H    -6.76735    3.56469    2.18569
       O    -6.30795    3.96406    2.96386
      H1    -5.35926    3.98632    2.59242
       H    -6.14781    2.35029    5.49610
       O    -6.07414    1.95056    4.65075
      H1    -6.26950    2.70440    3.98129
       H   -17.64620    2.56957    4.65668
       O   -17.50874    3.31717    4.01178
      H1   -18.39401    3.64385    3.84502
       H   -15.08459    0.70860    4.85526
       O   -15.44779   -0.17224    4.98343
      H1   -15.95946   -0.15095    5.74084

