180
frame 12 | Written by MDAnalysis XYZWriter (release 2.4.3)
       H    11.43045  -13.46780   -3.95851
       O    10.57842  -13.19553   -4.31972
      H1    10.81777  -12.36090   -4.79028
       H    12.90003  -14.77339   -2.63312
       O    12.66795  -15.23347   -1.78619
      H1    12.35414  -16.07073   -2.18024
       H     9.21504   -9.38324   -2.88299
       O     8.94093  -10.14932   -2.42878
      H1     8.25211   -9.91077   -1.83158
       H     3.46651  -16.76902   -1.95797
       O     4.12863  -17.41841   -1.55901
      H1     3.71247  -17.39931   -0.68660
       H     5.39339  -17.55184  -10.21514
       O     5.80194  -17.71466  -11.04886
      H1     6.73733  -17.62311  -10.84735
       H    -0.34104  -12.84686   -1.48172
       O     0.19846  -13.47745   -1.97354
      H1     0.75327  -13.88999   -1.27254
       H    -0.95504  -14.17455   -4.14561
       O    -0.98184  -14.82214   -4.84577
      H1    -0.61970  -15.57267   -4.31596
       H     0.30851  -17.73673  -10.09175
       O     0.53267  -17.86492   -9.17205
      H1     0.54432  -16.94130   -8.82029
       H    11.26391  -17.68862   -3.54779
       O    11.13724  -18.09192   -2.67792
      H1    11.86564  -18.69138   -2.61540
       H     3.77586  -17.96156   -8.15905
       O     4.06611  -17.04453   -8.32920
      H1     4.90240  -17.00659   -7.79942
       H    11.27305  -17.24753   -7.08002
       O    11.02702  -16.31785   -7.08938
      H1    10.86337  -16.21788   -6.12464
       H     2.51434  -14.49562  -10.65747
       O     1.98463  -13.71735  -10.99812
      H1     1.38626  -13.65219  -10.28243
       H     9.54380  -16.49415   -3.92416
       O    10.12100  -16.16443   -4.65226
      H1    10.21601  -15.22283   -4.43898
       H     7.26171  -15.42866   -7.44089
       O     6.58841  -16.10968   -7.32610
      H1     7.11162  -16.83987   -6.93962
       H     5.80549  -18.05755  -12.81125
       O     5.67019  -18.03778  -13.77349
      H1     6.57270  -17.74187  -14.05984
       H     8.44883  -12.83087   -4.46023
       O     7.76971  -12.27797   -4.83329
      H1     8.17919  -11.78321   -5.54792
       H     2.77560  -13.56803   -8.10001
       O     2.10201  -13.22715   -7.46611
      H1     2.17862  -13.90705   -6.75059
       H    10.66304  -17.45713   -0.95431
       O    10.34451  -17.39827   -0.04563
      H1     9.67560  -16.69304   -0.07456
       H     3.71111   -6.88569   -5.74246
       O     4.06411   -7.36844   -6.49504
      H1     3.79966   -8.29164   -6.37814
       H     7.22108  -16.30941   -2.45514
       O     7.63585  -15.69214   -3.06370
      H1     7.36203  -14.87606   -2.63537
       H    10.14514  -16.20493   -8.60705
       O     9.58109  -16.46517   -9.37036
      H1     9.42782  -15.71067   -9.92304
       H     2.94992  -15.10877   -2.38115
       O     2.20942  -15.70209   -2.10187
      H1     1.93004  -16.05375   -2.95820
       H     7.43568  -15.24562    1.37389
       O     7.46510  -16.23071    1.48453
      H1     7.07930  -16.49233    0.64264
       H     7.00913  -18.31166   -1.48904
       O     6.74776  -17.45437   -1.10797
      H1     5.77948  -17.44686   -1.13649
       H     9.21456  -18.25077  -12.06388
       O     8.45492  -17.61894  -11.97481
      H1     8.87947  -16.73760  -12.19673
       H    -0.50001  -11.04610   -6.54978
       O    -0.89995  -11.01229   -7.43842
      H1    -0.36759  -11.72944   -7.90034
       H    -0.98636  -15.47230   -6.59056
       O    -0.89270  -15.61299   -7.55049
      H1    -1.29292  -16.52584   -7.59551
       H     2.30050  -10.03393   -9.37703
       O     1.51678  -10.60555   -9.27067
      H1     1.11249  -10.58457  -10.15448
       H     0.50906  -11.73862   -4.39770
       O    -0.33152  -11.70096   -4.90341
      H1    -0.96965  -11.45592   -4.18319
       H     4.72673  -13.61809   -8.70104
       O     4.18420  -14.21871   -9.25840
      H1     4.49978  -15.08474   -8.96191
       H    11.18541  -10.89400   -6.41112
       O    11.25837  -10.96617   -5.44810
      H1    12.03528  -10.36600   -5.39658
       H     9.29446  -14.04720   -7.60018
       O     8.33166  -13.97261   -7.44882
      H1     8.17229  -13.65002   -6.50221
       H     6.32472  -15.53184   -4.33177
       O     5.46664  -15.49568   -4.83905
      H1     5.76479  -15.55258   -5.73647
       H     8.39369  -17.89993   -9.20429
       O     8.13785  -18.81656   -8.97411
      H1     7.96476  -18.86832   -8.00657
       H     3.91981   -9.06365   -2.87664
       O     3.14112   -9.57307   -2.55383
      H1     3.31901   -9.54522   -1.59506
       H     2.17665  -10.26145   -6.11380
       O     1.56555   -9.52684   -6.00160
      H1     0.99917   -9.67511   -6.81434
       H     2.43109  -11.13021   -2.87790
       O     2.01885  -11.87829   -3.43310
      H1     1.51225  -12.24269   -2.71389
       H     0.95868  -14.42934   -5.09816
       O     1.71011  -14.94392   -5.47066
      H1     1.32833  -15.84620   -5.63747
       H     8.54080  -15.02122  -13.80007
       O     8.95153  -14.98839  -12.94898
      H1     8.30473  -14.55393  -12.39253
       H    10.90198  -14.38570   -1.35843
       O    10.03966  -14.33015   -0.91895
      H1     9.51915  -14.35209   -1.71062
       H     7.42108  -19.44418   -5.84920
       O     6.90700  -18.82789   -6.39957
      H1     6.03145  -19.03619   -5.95671
       H     6.01025  -15.89392  -11.73197
       O     5.60452  -15.05225  -11.80560
      H1     4.79878  -15.20199  -11.30367
       H    11.76363  -13.15932   -9.01481
       O    11.27233  -13.59223   -8.32980
      H1    11.82513  -14.38506   -8.23780
       H    11.60758  -19.74423   -6.99872
       O    12.03400  -18.89384   -7.30776
      H1    11.94639  -18.96181   -8.27070
       H     7.15788  -10.80039  -10.52535
       O     7.57684  -11.15760  -11.33337
      H1     7.76772  -12.10035  -11.17417
       H    10.30402  -11.41558   -1.65122
       O    11.02322  -11.71822   -1.08055
      H1    10.83883  -12.65894   -0.95524
       H    -0.52363  -14.28560   -8.58713
       O    -0.26134  -13.45317   -8.97886
      H1     0.55101  -13.24824   -8.54976
       H     6.15381   -9.17097   -1.77768
       O     6.41852   -9.67042   -0.96831
      H1     6.06158  -10.59640   -1.15974
       H     6.59441  -12.64810    1.17927
       O     7.25469  -13.35765    1.03117
      H1     8.01016  -12.86254    0.71099
       H     5.36994  -12.39393   -2.81971
       O     6.17509  -11.99930   -2.51880
      H1     6.61783  -11.83330   -3.36217
       H     2.95138  -12.14099   -6.24869
       O     3.44947  -11.44299   -5.83362
      H1     3.16855  -11.45465   -4.92757
       H     4.54915  -14.60058   -3.72879
       O     4.12524  -14.00121   -3.10952
      H1     3.58868  -13.56354   -3.72659
       H     2.27166  -17.48798  -10.76831
       O     2.74297  -16.83480  -11.31645
      H1     2.01294  -16.43473  -11.83126
       H     8.75538  -10.01567   -7.41240
       O     8.12352   -9.67015   -6.78251
      H1     8.65791   -9.30399   -6.10051
       H     0.24740  -17.87059   -4.15866
       O     0.39333  -17.08779   -3.60694
      H1    -0.29288  -17.18149   -2.88180
       H     7.73955  -13.88698   -9.43372
       O     7.75700  -13.83451  -10.39789
      H1     6.81494  -14.04040  -10.59327
       H     4.42346  -17.56005   -5.26993
       O     4.18613  -18.44431   -5.55764
      H1     4.41364  -18.92700   -4.78798
       H     3.80627  -12.82777  -10.85369
       O     4.29824  -12.10997  -11.27634
      H1     3.64804  -11.49825  -11.65777
       H     6.37954  -11.65034   -7.30956
       O     5.55781  -12.17695   -7.50800
      H1     5.22509  -12.10172   -6.62548
       H     5.04896  -10.53403  -10.28250
       O     5.64324   -9.99281   -9.75093
      H1     5.48867  -10.30340   -8.87094

