180
frame 9 | Written by MDAnalysis XYZWriter (release 2.4.3)
       H   -16.89697   -9.91250   16.50323
       O   -16.75451   -9.46668   15.66886
      H1   -15.91764   -9.91377   15.35711
       H    -7.06054   -8.84275    8.06748
       O    -7.76904   -9.29108    8.61337
      H1    -8.33567   -8.57543    8.89425
       H    -8.76361  -11.73656   10.81705
       O    -9.71853  -11.66952   10.53360
      H1   -10.11688  -10.97956   11.12019
       H   -15.52481  -12.04424    8.97039
       O   -15.21375  -11.61287    9.77798
      H1   -15.67859  -12.00152   10.57213
       H   -19.29344   -6.48761   16.67857
       O   -18.57060   -6.55198   17.32492
      H1   -18.69461   -5.70821   17.87896
       H   -12.76249  -11.34798   13.16172
       O   -12.88116  -10.99929   12.26353
      H1   -13.54657  -10.27015   12.33644
       H   -11.26564   -0.12040    9.78078
       O   -11.32089   -0.98759   10.22402
      H1   -12.25749   -1.13790   10.26305
       H   -12.43264   -4.35410   17.06490
       O   -12.64732   -3.66142   17.64237
      H1   -13.41314   -4.00812   18.14287
       H    -8.24048   -9.52866   13.46571
       O    -8.37701   -8.65144   12.99868
      H1    -9.19433   -8.76842   12.48973
       H   -15.63781   -6.63655    4.88294
       O   -15.82489   -5.91051    5.44902
      H1   -16.12741   -6.33201    6.26159
       H   -10.57211   -6.48325    7.00541
       O   -11.31841   -7.11160    7.21735
      H1   -12.06527   -6.59530    6.80746
       H   -15.87767  -12.69976    6.79805
       O   -16.49651  -12.74146    7.61471
      H1   -16.82854  -11.84560    7.49317
       H   -19.13717   -5.65809    6.90520
       O   -19.26350   -6.65146    6.97927
      H1   -18.37735   -6.88614    7.19097
       H   -13.86890  -12.99848   10.18454
       O   -13.71293  -13.96676   10.21686
      H1   -14.36869  -14.28326   10.90060
       H    -7.86527   -7.46799   15.60985
       O    -8.84967   -7.77004   15.62067
      H1    -8.89094   -8.40073   16.38421
       H   -19.11017   -6.12665   11.97066
       O   -18.61210   -5.43699   12.49225
      H1   -17.96378   -6.05951   12.91288
       H   -16.79877   -9.90736    7.70972
       O   -17.56163  -10.16716    7.14638
      H1   -18.27928  -10.01078    7.73044
       H   -12.27692   -6.60047   10.54155
       O   -11.38875   -6.87661   10.22080
      H1   -11.44520   -6.85154    9.24949
       H    -9.61536   -2.18338   11.80906
       O    -9.31273   -2.03778   12.73675
      H1    -8.89323   -2.87916   13.04408
       H   -18.44575  -12.22265   10.96226
       O   -18.49581  -11.26749   11.17697
      H1   -18.55509  -11.23420   12.19314
       H   -14.89284  -11.91799   12.76467
       O   -15.76937  -12.05255   12.33784
      H1   -16.30697  -11.43693   12.90861
       H   -16.29485   -4.21292   16.14934
       O   -15.88076   -4.27841   15.26958
      H1   -15.46242   -3.39329   15.07021
       H   -15.69477   -1.71364   16.15773
       O   -15.19382   -1.59488   15.32778
      H1   -14.38490   -1.28132   15.75251
       H   -15.40845   -9.81336   18.61322
       O   -14.78163  -10.51398   18.41534
      H1   -14.80990  -10.47334   17.47298
       H   -15.27258   -4.72964   19.58974
       O   -15.13160   -4.88856   18.62869
      H1   -15.40897   -5.75395   18.37549
       H   -17.23016   -9.59203   11.11430
       O   -16.50516   -9.35835   10.53967
      H1   -16.09415  -10.26353   10.38006
       H   -16.04309   -7.93981    7.82641
       O   -16.64099   -7.17762    7.82926
      H1   -16.51590   -6.90779    8.74542
       H   -16.74036   -7.94978   13.98067
       O   -16.74440   -7.02434   13.72001
      H1   -15.99723   -7.07410   13.10263
       H   -11.50156   -9.38265   15.98348
       O   -12.44048   -9.50566   16.20845
      H1   -12.53118   -8.98837   17.06394
       H   -13.47451   -8.85118   18.71892
       O   -13.10418   -8.01777   18.39414
      H1   -13.85788   -7.42918   18.38086
       H   -10.95918   -7.94344   13.07409
       O   -10.77642   -7.16135   13.68302
      H1   -10.03967   -7.57339   14.25379
       H   -17.60498  -14.43705   10.68279
       O   -17.39672  -13.54523   10.23305
      H1   -17.16866  -13.74624    9.29921
       H   -11.65648  -12.54033   15.29532
       O   -11.24606  -12.14548   14.51801
      H1   -11.19039  -12.90722   13.88487
       H   -15.53626  -15.22165   13.45140
       O   -14.93842  -14.45467   13.55434
      H1   -15.58234  -13.78302   13.29738
       H   -14.11432   -9.83788    6.99473
       O   -14.84590   -9.21593    7.12114
      H1   -15.24690   -9.15683    6.22741
       H   -14.95331   -5.12751   13.85659
       O   -14.08996   -4.98866   13.44081
      H1   -13.56077   -5.37660   14.20675
       H    -8.43289   -3.29935    9.36022
       O    -9.26372   -3.76814    9.20521
      H1    -9.03218   -4.62825    9.58044
       H   -12.01505   -6.50095   15.14146
       O   -12.64301   -5.93875   15.60106
      H1   -13.34468   -6.47602   15.87231
       H   -11.21583   -8.49423   11.11232
       O   -10.72893   -9.05431   11.72329
      H1   -11.54897   -9.57259   11.89920
       H   -11.89609  -11.07772    7.26277
       O   -12.55006  -11.20866    6.53201
      H1   -12.02113  -11.22387    5.73768
       H   -13.52918   -4.39302    6.68547
       O   -13.09597   -5.08187    6.19314
      H1   -13.94632   -5.49690    5.87457
       H    -8.65325   -6.47021    8.78168
       O    -8.50551   -6.57258    9.70963
      H1    -9.40788   -6.69869   10.05442
       H   -13.67819  -10.39002   15.37264
       O   -14.44249  -10.84767   14.93565
      H1   -14.40729  -11.70409   15.35823
       H   -18.35366   -2.39477   11.76293
       O   -19.06432   -1.74084   11.60315
      H1   -19.61882   -1.96016   12.36197
       H   -11.24766   -4.23504   10.03420
       O   -12.23901   -4.11914    9.98859
      H1   -12.34312   -3.45100   10.70621
       H   -14.56188   -0.95917   10.81025
       O   -13.93763   -0.89541   10.07500
      H1   -14.31845   -1.53453    9.43518
       H   -14.58133  -13.86412   15.25729
       O   -14.64326  -13.33541   16.06136
      H1   -13.90731  -13.76332   16.56777
       H    -8.91339  -11.74399   14.34253
       O    -8.11461  -11.23077   14.16183
      H1    -7.80221  -11.59793   13.33607
       H   -14.74394   -2.54171   12.15365
       O   -15.63536   -2.07383   12.10579
      H1   -15.51747   -1.53650   12.91502
       H   -12.06195  -13.69592   11.31777
       O   -11.20504  -13.84833   11.67770
      H1   -10.61103  -13.21504   11.25535
       H   -18.24951  -12.20319   14.49475
       O   -18.01069  -11.44694   13.95076
      H1   -17.91005  -10.84223   14.70513
       H   -10.53246   -9.48381    7.56029
       O   -10.04165  -10.18776    7.01286
      H1    -9.21567  -10.16615    7.48116
       H   -13.83358   -5.38128   11.72992
       O   -13.97249   -5.96923   11.02880
      H1   -13.43755   -5.54492   10.34744
       H   -15.19408   -3.04576    7.42630
       O   -14.24535   -3.06338    7.49671
      H1   -13.90246   -2.21494    7.07326
       H   -16.18257   -5.50183   10.72028
       O   -16.81790   -6.11326   10.38321
      H1   -17.55300   -6.01153   11.02025
       H   -12.66128   -2.10598   13.05188
       O   -12.99879   -2.69701   12.36651
      H1   -13.19576   -3.52033   12.80273
       H   -16.02941   -6.76331   16.06731
       O   -15.48924   -7.19096   16.73482
      H1   -15.85064   -8.07784   16.75998
       H    -9.41820   -5.79349   12.96703
       O    -8.64056   -5.30886   12.63599
      H1    -8.27633   -6.01298   12.13824
       H   -18.79974   -3.10706   15.05245
       O   -18.91962   -2.28780   14.58245
      H1   -18.12059   -2.13532   14.12416
       H   -14.16764   -7.81284   11.99508
       O   -14.76908   -8.41970   12.39769
      H1   -15.49603   -8.58712   11.75145

