180
frame 10 | Written by MDAnalysis XYZWriter (release 2.4.3)
       H   -13.48425    8.32480   15.46151
       O   -13.10657    7.65807   16.09019
      H1   -13.14726    8.06092   16.99763
       H    -5.83625    3.03685   11.77224
       O    -6.10546    3.78843   12.26900
      H1    -6.68655    3.27036   12.85912
       H    -4.65452    5.23751   12.86661
       O    -4.10942    6.02076   13.07904
      H1    -4.46193    6.69998   12.50873
       H   -16.63935    1.28999   18.93352
       O   -16.08618    0.62667   19.41589
      H1   -16.11577   -0.12555   18.83159
       H    -6.52200    5.85608   17.90439
       O    -6.55422    5.84739   18.91187
      H1    -5.59010    5.82134   19.14305
       H    -3.16376    5.82340   19.07934
       O    -2.95749    5.62386   18.14944
      H1    -2.34544    4.89000   18.19629
       H   -12.69877   11.24008   19.63328
       O   -13.33248   11.26247   18.87874
      H1   -14.11070   11.14479   19.43284
       H   -11.50027    7.26508   14.84068
       O   -11.12364    7.03170   13.98633
      H1   -10.15698    7.04897   14.14664
       H   -13.73772    7.82613   11.39190
       O   -14.43030    7.41360   11.93793
      H1   -15.26146    7.57824   11.46368
       H   -12.97544   -2.58445   16.54162
       O   -13.30893   -1.69061   16.52476
      H1   -12.77387   -1.33272   15.77300
       H   -18.73915    4.85516   19.37970
       O   -19.63749    5.08564   19.59272
      H1   -20.14472    4.29937   19.35945
       H   -17.82083    1.25096   14.90340
       O   -17.42543    0.92873   15.75931
      H1   -16.82047    1.70145   15.89117
       H    -1.67730    9.68134   18.63536
       O    -2.27984   10.42598   18.94399
      H1    -2.89962   10.58925   18.25225
       H   -12.54764   10.34177   14.10247
       O   -11.77895   10.80522   13.72630
      H1   -11.23130   10.88477   14.54456
       H   -12.48669    4.20336   14.28034
       O   -11.50880    4.21890   14.36437
      H1   -11.29647    5.13927   14.23558
       H   -10.18086    6.29075   18.25943
       O   -10.27929    5.74075   19.01979
      H1   -10.98840    5.08234   18.88643
       H    -9.59496    1.58317   17.28011
       O    -9.77881    2.54833   17.15734
      H1    -9.19579    2.89626   17.88472
       H   -15.01321    9.57055   14.10829
       O   -14.11950    9.34113   14.19629
      H1   -14.04606    8.68533   13.49208
       H   -13.68126    3.28307   15.72895
       O   -14.48448    3.77969   15.41071
      H1   -14.45057    4.54149   15.95555
       H   -18.60826    4.18613   16.06153
       O   -17.68215    4.19582   15.70388
      H1   -17.48438    5.09510   16.01381
       H    -8.89278    5.55678    9.17641
       O    -8.62922    6.14298    9.96316
      H1    -9.37789    5.98688   10.54306
       H   -10.05383   -2.57859   19.64952
       O   -10.57968   -2.00947   19.07100
      H1   -11.10106   -2.68648   18.63277
       H    -9.17019    3.03835   15.45222
       O    -8.39509    3.39712   14.87440
      H1    -7.72949    2.79075   15.31852
       H    -9.72808   13.02029   13.52124
       O    -9.82827   13.56957   14.27678
      H1    -9.51189   13.04713   15.00749
       H   -10.40188    2.44184   11.77446
       O   -10.11921    2.86628   11.00146
      H1   -10.92073    2.98873   10.48144
       H    -6.35075   10.38676   15.84379
       O    -6.04903    9.64215   16.36418
      H1    -6.13342    8.87037   15.76371
       H    -7.81006    7.08758   13.34696
       O    -8.37463    7.36353   14.08092
      H1    -7.89153    6.87511   14.76708
       H   -13.26502    9.18466   18.94254
       O   -13.14463    8.26263   19.08881
      H1   -13.99910    7.94628   19.30930
       H   -12.62056   -0.31604   18.21528
       O   -12.86842    0.54436   18.67385
      H1   -13.81506    0.44340   18.74620
       H    -9.47495   10.72517   16.35561
       O    -9.49668   10.46532   15.43842
      H1    -9.08748    9.59826   15.55673
       H    -7.51655    9.91561   19.41179
       O    -7.02343    9.17265   19.02467
      H1    -6.79213    9.54260   18.10626
       H   -11.92474    0.13151   14.15407
       O   -12.10963   -0.81230   14.18762
      H1   -11.39888   -1.19367   13.61873
       H   -11.55666    8.10807   10.54081
       O   -12.26196    8.14834    9.90069
      H1   -11.73157    8.78959    9.38119
       H   -11.43115    6.00241   12.40704
       O   -11.19674    5.92049   11.44249
      H1   -11.60770    5.10963   11.14058
       H    -8.31712   10.76206   12.18525
       O    -8.25244   11.72462   12.34456
      H1    -8.03860   12.15045   11.52838
       H    -8.25698    1.71667   13.75833
       O    -8.14282    1.64371   12.77286
      H1    -8.42348    2.45713   12.39960
       H   -13.58418   13.02189   18.44075
       O   -13.68526   13.97115   18.29129
      H1   -13.69151   14.33616   19.18791
       H   -18.64912    7.48679   14.30369
       O   -18.04116    7.15734   14.99137
      H1   -17.27506    6.91933   14.51978
       H    -6.59512   12.53334   15.05166
       O    -6.39238   11.87505   14.39202
      H1    -6.95713   12.11403   13.65552
       H   -13.24330    3.49790   10.33288
       O   -13.41115    3.04381   11.18748
      H1   -13.92391    3.70032   11.70851
       H    -9.71913   -0.76889   17.77576
       O    -9.22959   -0.34686   17.07437
      H1    -9.19783   -0.96985   16.38368
       H    -6.71519    6.13751   16.02493
       O    -7.68667    5.86866   16.10719
      H1    -7.69868    5.10766   15.49465
       H    -3.00033    1.18507   19.90265
       O    -2.73178    1.10759   18.98191
      H1    -3.26792    0.32062   18.71559
       H   -15.14095    5.59101   12.58503
       O   -15.17630    4.62615   12.66587
      H1   -14.95676    4.39601   13.59770
       H    -4.15034    7.15972   15.70569
       O    -5.03966    6.77205   15.38742
      H1    -4.74104    6.59084   14.45818
       H    -3.52484    1.95006   17.51934
       O    -3.78266    2.11147   16.57598
      H1    -3.85427    3.04143   16.65191
       H   -14.98887    5.75529   17.58046
       O   -15.23853    6.09764   16.71932
      H1   -14.48840    6.65957   16.57224
       H    -2.55232    6.65245   16.82049
       O    -2.34196    7.35352   16.19872
      H1    -2.72071    8.20285   16.53458
       H    -7.68747   -0.48567   17.91227
       O    -7.01197   -0.68055   18.59248
      H1    -6.27084   -0.91119   18.02514
       H    -6.28269    1.25416   18.74443
       O    -5.88159    2.11416   18.72383
      H1    -6.69291    2.65684   18.69464
       H    -6.70430    7.73194   11.16526
       O    -6.69121    6.92557   11.68017
      H1    -7.42692    6.42948   11.29418
       H   -11.93126    1.78179   12.23200
       O   -11.37964    1.67440   13.09322
      H1   -11.51357    2.63158   13.41198
       H    -9.75297   11.62204   18.78432
       O    -9.10609   10.93442   18.49755
      H1    -9.74912   10.18540   18.55658
       H    -6.21487    0.94892   14.99323
       O    -6.34751    1.36057   15.81839
      H1    -5.42382    1.58101   15.97543
       H    -3.13660   10.54098   15.91187
       O    -3.42146    9.85319   16.51383
      H1    -4.35309    9.77900   16.36625
       H   -10.76151    8.45735   12.69094
       O   -10.33647    9.13848   12.13803
      H1   -10.81315    9.84956   12.63651
       H   -15.91611    3.68663   18.56668
       O   -16.85615    3.59884   18.35902
      H1   -16.79050    3.72735   17.39687
       H    -8.41708    7.22871   17.09336
       O    -8.85407    8.07914   17.42004
      H1    -8.27339    8.45548   18.11388
       H   -12.91390    1.66211   17.21787
       O   -12.59185    2.31554   16.61175
      H1   -11.72594    2.46879   16.99325
       H   -17.03046   10.37098   16.21677
       O   -17.32206   10.83140   17.03175
      H1   -16.65441   10.54862   17.68409

