180
frame 11 | Written by MDAnalysis XYZWriter (release 2.4.3)
       H    14.40871  -17.99846  -19.30339
       O    14.48018  -18.78798  -18.77402
      H1    14.98741  -19.40039  -19.40285
       H    15.18438   -6.18918  -18.38301
       O    15.52689   -6.14412  -19.28860
      H1    14.70482   -6.20002  -19.80989
       H    11.92046  -11.57471  -13.63452
       O    12.26413  -10.83253  -14.15625
      H1    12.86085  -10.47856  -13.41473
       H     9.30804   -6.48463  -18.85904
       O    10.21991   -6.86337  -18.93365
      H1     9.91200   -7.80889  -19.02716
       H    17.71770   -7.11669  -16.11189
       O    17.75270   -6.14479  -15.94895
      H1    18.71261   -6.06175  -16.05487
       H    12.71412  -15.03009  -10.66113
       O    11.96974  -15.27875  -11.18419
      H1    12.35055  -15.88237  -11.82554
       H    11.55734  -14.36093  -20.16517
       O    10.81829  -13.90245  -19.77151
      H1    11.31803  -13.36185  -19.07192
       H    16.82891   -6.01689  -14.33412
       O    16.35807   -6.25540  -13.50488
      H1    15.79771   -5.44441  -13.40752
       H    18.46847   -2.63396  -13.72246
       O    19.26433   -2.68805  -13.21041
      H1    19.17201   -1.91600  -12.63870
       H    11.92166   -4.13807  -16.94445
       O    12.58449   -4.19506  -16.19090
      H1    12.50727   -5.12997  -15.93993
       H    17.74186  -16.56260   -9.64208
       O    17.14276  -16.16771   -8.99297
      H1    17.03479  -16.95683   -8.39191
       H    13.25138  -19.20780  -17.33772
       O    13.02331  -19.36611  -16.41886
      H1    13.87174  -19.04812  -16.05655
       H    13.14785  -13.73355  -14.60162
       O    13.06184  -14.19360  -15.41433
      H1    13.85347  -14.74655  -15.62074
       H    10.85436  -11.10123  -10.45770
       O    11.48283  -11.73343  -10.73856
      H1    11.03604  -12.26041  -11.43333
       H    18.34868  -19.69602  -13.95037
       O    18.17373  -19.66366  -13.00327
      H1    17.26900  -19.30399  -12.90002
       H    17.71198  -14.64873   -9.20196
       O    18.15046  -13.79235   -9.18275
      H1    18.68715  -13.81992   -9.98011
       H    17.94224  -11.22942  -12.65264
       O    18.81814  -11.57847  -12.39624
      H1    19.12185  -11.06170  -11.64797
       H    16.86735   -9.18853  -16.86289
       O    16.95656   -8.99898  -15.96745
      H1    17.89215   -9.24820  -15.69245
       H    11.54638   -9.14478  -17.01994
       O    10.82110   -9.59724  -16.58533
      H1    11.14216  -10.03476  -15.76568
       H    18.76526  -14.41955  -15.64725
       O    18.12060  -13.70897  -15.84243
      H1    18.04907  -13.62148  -16.81961
       H    17.68668  -12.89561   -6.55738
       O    17.17836  -12.28378   -7.11684
      H1    17.35408  -12.73285   -7.90755
       H     9.67532  -10.17007  -19.44286
       O     9.23199   -9.62568  -18.80590
      H1     9.82226   -9.71856  -18.02137
       H    10.31227   -8.67108  -13.82288
       O     9.55043   -8.27078  -14.32853
      H1     9.74835   -8.61947  -15.24598
       H    15.31393   -3.24966  -18.45290
       O    15.90478   -3.45534  -19.22992
      H1    15.61756   -4.35642  -19.41192
       H    13.91996   -3.06964  -16.48500
       O    14.65706   -2.39250  -16.81464
      H1    15.33757   -2.53537  -16.10954
       H    10.89053  -19.96638  -19.60726
       O    11.70219  -19.88575  -19.08033
      H1    11.80724  -18.91039  -18.90483
       H    14.15932  -12.86172  -18.93707
       O    14.60097  -12.20942  -19.46092
      H1    15.11433  -11.82725  -18.75045
       H    16.54950   -1.76427  -14.79276
       O    16.45701   -2.72934  -14.82920
      H1    16.07256   -3.04361  -13.92838
       H    16.02583  -18.07597  -15.30233
       O    15.50625  -18.87914  -14.92651
      H1    15.46391  -18.60608  -14.01444
       H    15.48818  -16.28337  -17.13602
       O    15.01243  -16.07480  -16.31705
      H1    15.65811  -16.19049  -15.68206
       H    18.17308  -10.65172   -9.69418
       O    19.10984  -10.68205   -9.81800
      H1    19.39129  -10.55834   -8.84987
       H    16.08815  -10.12671   -9.82173
       O    16.40006  -11.05387   -9.83657
      H1    16.40784  -11.31948  -10.79480
       H    15.17768   -4.07737  -11.70660
       O    15.26065   -3.87570  -12.68989
      H1    14.42226   -3.34600  -12.78773
       H    19.00366  -19.51643  -18.58749
       O    17.96976  -19.48956  -18.66149
      H1    17.89572  -18.90885  -19.47483
       H    14.03567   -8.10900  -14.41241
       O    14.77227   -8.55981  -13.94789
      H1    15.27582   -7.70890  -13.86013
       H    15.24955  -14.89797  -12.70746
       O    15.74142  -15.72915  -12.89999
      H1    16.60331  -15.33873  -12.76218
       H    15.95048  -14.81615  -17.97307
       O    16.67098  -14.83862  -18.56125
      H1    16.29903  -14.67171  -19.42645
       H    11.95576   -7.16812  -14.46748
       O    12.51272   -6.72453  -15.09461
      H1    12.50482   -7.23123  -15.89613
       H    15.63604  -12.03897  -15.55308
       O    15.66298  -12.64839  -14.82941
      H1    16.48540  -13.14195  -15.01056
       H    13.46872   -8.19625  -18.16328
       O    12.76539   -7.82069  -17.58088
      H1    12.30863   -7.26565  -18.26907
       H    15.20569  -13.87556   -9.99218
       O    14.95881  -13.47839  -10.84301
      H1    14.23248  -12.92856  -10.60879
       H    17.72966   -3.69794  -16.56554
       O    18.11442   -3.82421  -17.44660
      H1    17.30601   -3.79137  -17.98892
       H    13.90338  -10.48979  -15.86054
       O    14.60473  -10.46209  -16.55091
      H1    15.30377  -10.02349  -16.01882
       H    18.18013  -17.03274  -16.30547
       O    17.44161  -17.62163  -16.51373
      H1    17.76420  -18.11750  -17.26491
       H    11.66431  -19.63960  -14.57809
       O    10.98068  -19.08404  -14.21147
      H1    11.57828  -18.43179  -13.83215
       H    18.75510  -11.82494  -17.42890
       O    17.95086  -11.87016  -18.02505
      H1    18.04646  -12.32417  -18.88894
       H    11.22431  -16.42167  -17.80964
       O    11.85342  -16.54267  -18.54016
      H1    11.25313  -16.67709  -19.27509
       H    15.20365  -18.58349  -11.47084
       O    15.84599  -18.38120  -12.16227
      H1    15.69786  -17.44062  -12.31181
       H    11.64915  -15.70543  -15.75378
       O    11.15622  -16.45501  -16.07134
      H1    11.86111  -17.01451  -16.28228
       H    10.50190  -13.81783  -13.29114
       O    11.24415  -13.31388  -13.03168
      H1    11.75820  -13.97666  -12.53832
       H    13.95816  -15.63913   -9.24359
       O    14.49806  -16.21300   -9.82544
      H1    15.34955  -16.24057   -9.34587
       H    18.62363  -14.66861  -11.93164
       O    18.17385  -14.18588  -12.60063
      H1    18.38000  -13.23166  -12.44839
       H    14.64517  -10.62106  -11.93617
       O    13.81122  -10.20744  -11.67930
      H1    13.36140  -10.66540  -10.98711
       H    13.13086  -14.06897  -17.07759
       O    13.29338  -14.16079  -18.03055
      H1    12.80431  -14.97920  -18.16060
       H    16.64028   -8.01109  -10.20341
       O    15.71737   -8.17939   -9.93982
      H1    15.26327   -8.24000  -10.72919
       H    12.58972   -8.33874  -11.91516
       O    11.90670   -7.74639  -12.27474
      H1    12.10006   -7.00416  -11.71406
       H    14.76993   -9.78065  -18.83063
       O    14.51771   -9.11106  -19.53357
      H1    13.82651   -9.57888  -20.02871
       H    16.23457  -11.36438  -13.52630
       O    16.18588  -10.64712  -12.87540
      H1    15.73599   -9.93158  -13.38245
       H    13.57921  -17.29457  -12.29522
       O    12.73791  -17.69267  -12.47031
      H1    12.67243  -18.19909  -11.61929
       H    18.64628   -6.87648  -11.65052
       O    17.95514   -7.53434  -11.70735
      H1    17.28522   -7.04682  -12.31424

