180
frame 3 | Written by MDAnalysis XYZWriter (release 2.4.3)
       H    11.76481  -16.52115   16.01864
       O    11.60201  -16.18938   16.87126
      H1    10.70715  -15.75505   16.81614
       H     9.52741  -14.35754   15.86559
       O     9.15401  -14.66048   16.70747
      H1     9.35655  -14.00336   17.39033
       H     4.38807  -10.55305   11.52631
       O     3.59387  -10.06150   11.58942
      H1     2.93161  -10.67338   11.93595
       H     9.15860   -8.68201    9.73880
       O     9.57333   -7.89375    9.34662
      H1    10.18378   -7.64832   10.10363
       H     9.65153  -16.58608    7.74223
       O     8.72828  -16.56066    7.64937
      H1     8.53013  -16.34485    6.69832
       H     7.82233  -18.49777   12.96777
       O     7.78966  -18.06565   13.82200
      H1     6.86136  -18.31054   14.08926
       H     7.37804   -8.38970   19.35185
       O     6.45412   -8.41342   19.04200
      H1     6.57725   -8.32716   18.08617
       H    16.16911  -18.25955   13.78587
       O    15.34651  -18.55869   14.23188
      H1    14.71140  -18.01332   13.74841
       H    15.14260  -13.84516   13.14474
       O    15.55599  -14.45232   12.53698
      H1    15.95807  -13.82363   11.91299
       H    10.45271  -10.24831    9.68562
       O    11.04768  -10.51987    8.91272
      H1    10.36293  -10.76339    8.26634
       H    14.12602  -11.69824   13.09081
       O    14.89601  -11.96746   13.51818
      H1    14.45097  -12.34467   14.33965
       H     5.68396  -11.64407   13.22301
       O     5.73320  -11.60314   12.28735
      H1     5.18791  -12.35343   11.98681
       H    15.35733  -15.47253   16.78529
       O    15.05914  -16.36940   16.88344
      H1    14.75655  -16.68812   16.01479
       H     6.96578   -6.00077   16.41727
       O     7.55006   -6.72811   16.24849
      H1     7.04382   -7.43385   15.86383
       H    10.54817  -15.61402   11.55830
       O    11.36166  -15.63558   12.05634
      H1    11.96654  -15.22860   11.35186
       H    12.24854   -7.65922   10.50430
       O    11.58157   -7.61981   11.21382
      H1    11.68333   -6.72616   11.60728
       H    12.28676  -12.03081    8.82946
       O    12.95064  -12.61379    8.41188
      H1    13.54037  -11.93468    7.93418
       H    12.02459  -13.91524   14.69746
       O    12.90311  -13.56853   14.74145
      H1    13.05044  -13.69123   15.70915
       H     9.59533   -9.09405   18.58030
       O     9.00638   -8.60830   19.23657
      H1     9.18818   -9.08170   20.05737
       H     8.47103   -8.40418   11.96994
       O     7.60121   -7.89789   12.03702
      H1     7.26577   -8.17564   11.21030
       H     9.90723  -13.21630   13.93827
       O    10.12857  -14.09073   14.21782
      H1    10.30525  -14.50390   13.36413
       H     4.33192  -18.05990   15.06407
       O     5.22565  -18.42408   15.07723
      H1     5.48967  -18.36547   16.05662
       H    10.16996  -11.19165   15.86951
       O     9.51802  -11.48126   15.21465
      H1     8.74198  -11.59481   15.84388
       H     2.24529  -12.08532   14.12580
       O     2.95841  -12.10001   14.75725
      H1     2.95141  -12.94635   15.13264
       H    13.20052  -13.68255   10.24292
       O    13.26100  -14.61875   10.56265
      H1    13.76933  -14.51923   11.36873
       H     5.15548   -8.78193   15.26617
       O     5.80600   -9.13609   15.88241
      H1     5.23227   -9.62326   16.50229
       H     8.74504  -18.93269   10.53640
       O     8.22048  -18.36084   11.10802
      H1     7.39647  -18.28778   10.61864
       H     8.45497  -11.28653    7.11943
       O     8.64473  -10.52612    7.72463
      H1     8.85156   -9.79025    7.12904
       H     5.00978  -13.82936   10.69271
       O     4.19992  -13.39994   11.01451
      H1     3.93371  -12.86841   10.19406
       H     7.47808  -14.49477   10.91101
       O     6.59553  -14.76619   11.12341
      H1     6.80475  -14.94416   12.06636
       H     5.76961  -13.86279   19.74399
       O     5.95302  -13.11806   19.13703
      H1     6.10805  -12.37419   19.71383
       H    16.53984  -15.11163   13.98525
       O    16.99070  -15.47798   14.73025
      H1    17.25520  -14.56181   15.05086
       H    16.25187  -10.55063   13.82373
       O    17.12686  -10.35491   14.08628
      H1    17.56921  -10.71568   13.31948
       H    14.60430  -15.29107    7.86053
       O    14.90102  -15.70304    8.67735
      H1    14.24106  -15.23034    9.25495
       H    11.31355   -8.99496   12.46984
       O    11.30416   -9.93160   12.73660
      H1    11.39053   -9.82941   13.69169
       H     9.26429  -19.18623   16.65801
       O     9.27593  -19.50966   15.77071
      H1     8.68334  -18.99587   15.29819
       H     8.71441  -12.08029   13.33157
       O     8.42168  -12.52215   12.50287
      H1     7.45393  -12.37344   12.62672
       H     8.00371   -5.77031   14.50457
       O     8.11139   -5.63054   13.55928
      H1     7.92787   -6.49259   13.18514
       H    12.75154  -16.55153    7.37713
       O    11.93222  -16.94412    7.72324
      H1    12.22400  -17.13697    8.62114
       H    12.23031  -18.28539   10.82998
       O    11.56234  -17.71644   10.41497
      H1    11.52368  -16.95171   11.05246
       H     6.65533  -11.92169   17.19931
       O     7.60153  -11.60965   17.23252
      H1     7.87473  -12.07377   18.04062
       H    12.18010  -17.24768   17.92189
       O    12.53130  -17.85793   18.62428
      H1    11.76370  -17.77007   19.19714
       H    12.65699   -7.07165   17.03874
       O    12.70181   -7.88189   17.64532
      H1    13.57620   -8.23487   17.30334
       H     9.42906  -10.48838   11.64650
       O     9.05756  -10.01403   10.85800
      H1     8.30651  -10.56930   10.70528
       H    14.07253  -11.10544   10.78188
       O    13.37144  -11.44785   11.42148
      H1    12.75538  -10.73583   11.60803
       H     4.92113  -15.23746   16.35095
       O     4.16195  -15.80769   16.42083
      H1     3.62181  -15.16577   16.89021
       H    14.76359   -8.65155   15.06083
       O    13.80356   -8.48959   15.01508
      H1    13.76664   -7.83386   14.29702
       H    11.32473   -9.01622   17.35816
       O    10.83445   -9.86541   17.47442
      H1    11.60859  -10.27999   17.93444
       H     5.51650  -17.94743   10.79962
       O     5.84758  -17.35619   10.13890
      H1     5.84953  -16.52223   10.58838
       H     9.20749   -9.36238   14.88005
       O     9.38298   -8.46364   14.63908
      H1    10.41191   -8.31779   14.71858
       H     8.77679  -16.57986   10.68740
       O     9.16755  -15.76544   10.35033
      H1     9.02198  -15.69240    9.41754
       H     4.78470  -15.60857   12.97274
       O     3.84621  -15.40768   12.98177
      H1     3.61699  -14.99326   12.14140
       H     9.63124  -13.92496   19.82422
       O     9.64559  -13.42142   19.01348
      H1    10.25886  -12.63935   19.33846
       H     4.60179  -11.85495   15.06658
       O     5.60011  -11.87542   14.91660
      H1     5.96766  -11.16584   15.45163
       H     6.94733  -14.70228    8.04788
       O     6.40669  -14.08470    7.51833
      H1     5.87488  -13.61486    8.17374
       H    12.69037  -14.88630   17.81012
       O    12.80342  -13.90502   18.12121
      H1    13.57238  -13.94665   18.67550
       H     7.59313  -14.36178   16.25164
       O     6.62432  -14.52248   16.01195
      H1     6.53348  -13.73373   15.45826
       H     8.25353  -16.20688   17.50399
       O     8.12327  -16.95611   18.11365
      H1     7.11996  -17.05161   18.10547
       H     6.79073  -15.46134   14.60201
       O     6.62983  -15.73588   13.66113
      H1     7.24626  -16.51627   13.76303
       H    12.25750  -16.63368   13.53393
       O    12.52530  -17.20226   14.25918
      H1    12.14598  -18.01983   13.90788

