180
frame 11 | Written by MDAnalysis XYZWriter (release 2.4.3)
       H     7.38167  -15.65277    4.22251
       O     7.96410  -14.96604    4.42684
      H1     8.77214  -15.20889    4.03652
       H    11.35464  -13.00479   -4.54113
       O    10.61154  -13.36052   -3.98430
      H1     9.94253  -12.75654   -4.32598
       H    12.93977  -14.41894   -2.87149
       O    12.75049  -15.00307   -2.11047
      H1    12.11364  -15.62815   -2.51950
       H     8.85964  -10.31587   -3.26308
       O     8.89756  -10.89741   -2.46911
      H1     8.00035  -10.63359   -2.09072
       H    11.82388   -5.49048    2.44915
       O    11.85479   -5.15048    3.33081
      H1    10.90976   -5.12123    3.55303
       H     5.45782  -13.07999    2.48272
       O     5.76731  -12.35286    1.87162
      H1     5.27630  -11.54959    2.08886
       H    13.32699   -8.70171   -6.60995
       O    13.23029   -9.28863   -5.87570
      H1    13.67041   -8.77861   -5.14669
       H    12.35698  -13.21919    2.80964
       O    11.66252  -13.52399    3.40145
      H1    10.91382  -13.01912    3.04150
       H    13.12058   -4.93932   -3.17671
       O    13.01937   -5.20446   -4.11826
      H1    12.12685   -5.61216   -4.07681
       H    10.76537  -16.85569   -3.46274
       O    11.43820  -17.13728   -2.75663
      H1    11.91019  -17.82480   -3.22758
       H     7.70158   -5.70750   -2.84952
       O     8.20357   -5.37396   -3.61139
      H1     7.86141   -5.79182   -4.41309
       H     8.48549  -10.26222    4.00732
       O     8.07879  -10.48473    3.18319
      H1     7.57017  -11.25629    3.57516
       H    13.43891  -10.66657   -2.21712
       O    12.78669  -11.02291   -2.88948
      H1    12.12986  -11.46444   -2.31869
       H    13.77943   -5.48015   -0.87916
       O    13.32724   -4.69211   -1.22633
      H1    13.97364   -3.94597   -1.09401
       H    14.20010   -7.91963   -3.17737
       O    14.84208   -8.20206   -3.85885
      H1    15.12537   -7.32283   -4.24281
       H    11.93850   -8.03834   -2.06364
       O    12.13792   -8.14279   -3.03491
      H1    12.15296   -9.08971   -3.03272
       H     8.84371  -16.15966   -4.42388
       O     9.72105  -16.04570   -4.81911
      H1    10.01722  -15.16493   -4.48993
       H     8.44116  -11.71724   -3.67331
       O     8.23264  -12.21183   -4.52687
      H1     8.46650  -11.56050   -5.20186
       H    11.83793   -4.90085   -0.31407
       O    11.20911   -5.12194    0.38084
      H1    11.21148   -4.21701    0.75111
       H    10.25826  -16.62584   -0.20416
       O     9.92887  -16.87852    0.66324
      H1     9.22675  -16.19260    0.82931
       H    15.70485  -14.64735   -0.22536
       O    15.83364  -13.77483    0.19291
      H1    15.96353  -14.05398    1.09778
       H     6.85056  -16.22320   -2.87182
       O     7.00421  -15.48052   -3.45121
      H1     6.30985  -14.91853   -3.17078
       H     8.20460   -9.46611    1.76470
       O     8.54064   -9.22695    0.88358
      H1     7.81545   -9.61842    0.33298
       H    12.77053   -9.18866    6.53247
       O    13.65087   -9.32825    6.23033
      H1    13.49616   -9.25819    5.25657
       H     7.76472  -14.80777    1.03240
       O     7.46542  -15.67351    1.25564
      H1     6.90033  -16.00200    0.50346
       H    13.36303  -14.55725    1.80990
       O    13.77250  -13.71133    1.87219
      H1    14.18476  -13.65543    1.01788
       H     7.42206  -17.78951   -1.18089
       O     6.69475  -17.08198   -1.00514
      H1     5.88874  -17.61581   -1.29521
       H    16.32687   -7.39311   -0.83027
       O    15.42051   -7.17390   -0.45553
      H1    15.03713   -8.03770   -0.42415
       H    11.48541  -11.42393   -6.76324
       O    11.46056  -11.23401   -5.81824
      H1    12.18838  -10.58947   -5.76524
       H     3.67051  -10.55922   -0.34540
       O     3.42514  -11.33550    0.17860
      H1     4.27638  -11.70854    0.38339
       H    14.32369  -13.52706   -5.11078
       O    13.60443  -13.37738   -4.45296
      H1    13.63977  -12.40553   -4.25196
       H     9.57008   -9.34215    5.42472
       O     9.71811  -10.25710    5.19215
      H1    10.59915  -10.30394    4.80839
       H     9.68953  -10.88733    2.48578
       O    10.56619  -11.17380    2.23005
      H1    10.31979  -11.33391    1.28155
       H     9.26774  -13.39469   -7.31107
       O     8.38255  -13.73716   -6.96155
      H1     8.41337  -13.41122   -6.03290
       H     7.75233  -13.54832    7.01051
       O     8.15362  -13.03198    6.33570
      H1     7.91250  -13.50460    5.52791
       H    15.60294  -10.93361   -7.15037
       O    15.48750   -9.96583   -7.00137
      H1    14.63898   -9.84928   -6.48169
       H    13.96323   -9.65638    3.07189
       O    14.63149   -9.14236    3.51910
      H1    15.35371   -9.09839    2.87732
       H    14.45990  -13.09475    5.16774
       O    15.06867  -13.59348    4.53038
      H1    14.49759  -13.51466    3.74282
       H    11.87467   -7.55582    4.59436
       O    11.78196   -8.43700    4.18371
      H1    12.16806   -8.30445    3.30069
       H     9.85320   -6.08021   -3.87108
       O    10.55417   -6.37127   -4.50325
      H1    11.02997   -7.12640   -4.16955
       H    15.22573  -16.77030   -1.57492
       O    14.74198  -16.29173   -0.89814
      H1    14.12399  -15.75175   -1.29781
       H    10.11982   -8.43744   -5.16742
       O     9.70771   -9.30120   -4.97166
      H1    10.44059   -9.88778   -5.31908
       H    10.97115  -14.51964   -1.52375
       O    10.04459  -14.72826   -1.27264
      H1     9.65626  -14.27318   -2.00301
       H    10.89291  -16.74448    3.35833
       O    10.63678  -16.12892    4.08124
      H1    10.97771  -15.25367    3.80741
       H    16.35776   -7.35605    1.17739
       O    16.99868   -7.85402    1.72007
      H1    17.52572   -7.20450    2.21206
       H    16.38959   -9.71920   -5.40763
       O    17.05720   -9.35793   -4.82176
      H1    16.49338   -8.94558   -4.12424
       H    11.43002  -17.61547    1.52078
       O    11.70687  -18.13704    2.28909
      H1    12.64955  -18.13008    2.28548
       H    10.13388  -11.58567   -1.09446
       O    10.94606  -11.73600   -0.53043
      H1    10.86749  -12.65324   -0.14820
       H     6.58168   -9.65769   -1.35064
       O     6.74967  -10.54009   -0.94979
      H1     6.15974  -11.09551   -1.55252
       H     7.52769  -12.70562    1.12856
       O     8.40308  -13.04608    0.85141
      H1     8.36443  -13.44720   -0.01423
       H    10.84272   -7.00357    0.02556
       O    11.11459   -7.81698   -0.31068
      H1    10.28243   -8.30554   -0.10205
       H     4.84810  -11.99329   -3.37447
       O     5.69189  -11.57580   -3.33255
      H1     6.33034  -12.07613   -3.81940
       H    14.95883  -16.91693    1.74156
       O    14.07709  -17.25182    1.53838
      H1    13.95887  -16.96669    0.61888
       H    13.43492   -9.45041    0.02408
       O    14.02378   -9.49522   -0.75635
      H1    14.85338   -9.84706   -0.31907
       H     8.74822  -10.66535   -7.47189
       O     8.13357  -10.52190   -6.76676
      H1     8.68653   -9.97048   -6.17018
       H     6.74019   -6.94222    4.04952
       O     6.64851   -6.53912    3.13191
      H1     6.27254   -7.16167    2.57951
       H    12.12762   -8.79188    0.91303
       O    12.56247   -9.37855    1.60666
      H1    11.88131  -10.02822    1.71861
       H    16.68636  -11.15592    0.18854
       O    16.50757  -10.26017   -0.15813
      H1    17.12042   -9.77565    0.48821
       H     8.47364   -6.94061    2.88654
       O     9.33379   -6.89571    3.34575
      H1     9.63226   -7.80054    3.29273
       H     9.22249  -18.76546   -1.39553
       O     8.98078  -18.39733   -2.25725
      H1     9.82358  -18.19889   -2.68248

