180
frame 8 | Written by MDAnalysis XYZWriter (release 2.4.3)
       H    -0.86065    3.25364   14.24659
       O    -1.65798    3.53606   14.78015
      H1    -2.03115    4.21999   14.20982
       H     4.86492    3.51730   17.84951
       O     4.57862    4.38251   17.63476
      H1     4.66257    4.83550   18.46733
       H     6.18533   11.18402   13.58058
       O     6.51620   10.24458   13.61667
      H1     7.45991   10.26883   13.53678
       H     9.06744    2.61403   19.87415
       O     8.43082    3.00737   19.20915
      H1     9.07235    3.45198   18.63782
       H     3.75231    1.60173    9.86651
       O     3.81519    0.90244   10.54584
      H1     4.40406    1.39894   11.12677
       H     3.56048   12.10755   20.08405
       O     2.94222   12.50857   19.50016
      H1     3.53742   13.16460   19.00291
       H     3.17110    8.68845   15.33224
       O     2.20061    8.79982   15.19092
      H1     1.99075    8.36524   14.32851
       H    -3.60122    4.60028   19.31531
       O    -3.54500    4.62278   18.34774
      H1    -2.58548    4.53649   18.14575
       H     9.06703    0.49721   15.14532
       O     9.68432    0.62201   14.39701
      H1    10.36582    1.14887   14.83973
       H    -0.70309    3.31673   18.06441
       O    -0.91826    4.13976   17.54501
      H1    -1.27983    3.76610   16.72898
       H     9.37425    4.34551   11.03528
       O    10.36030    4.42288   10.99730
      H1    10.55223    3.44693   11.01865
       H     8.03463   -0.12065   11.49901
       O     8.91906   -0.08718   11.93749
      H1     8.70358    0.58785   12.62488
       H     8.12094   11.01553   16.57726
       O     8.05946   11.94961   16.83541
      H1     8.19925   11.69560   17.78196
       H     2.08027   10.21354   14.25393
       O     2.08685   10.81317   13.45997
      H1     1.36179   11.41184   13.74584
       H     4.12731   11.35077   18.30187
       O     4.91601   11.17764   17.80496
      H1     4.73976   11.74151   17.03579
       H     3.31797   -2.03105   13.98990
       O     3.90218   -1.64186   14.66377
      H1     3.56353   -1.97593   15.48728
       H     4.47175    5.11848   10.16461
       O     5.30430    4.82733    9.72270
      H1     5.04882    4.72968    8.82858
       H     3.20909   10.29705   12.09240
       O     3.78290   10.25776   11.27983
      H1     3.52539    9.39547   10.92874
       H     3.82041    7.61452    9.33046
       O     3.35148    7.87289   10.07787
      H1     3.79036    7.42532   10.86636
       H    -2.57001    1.14281   15.81961
       O    -1.74862    0.68618   15.97883
      H1    -1.65193    0.99569   16.93071
       H     0.81105    4.12896    9.82731
       O     1.61105    3.73343    9.50950
      H1     2.18221    4.14663   10.27037
       H     2.48397   -1.69509   17.28744
       O     2.52889   -2.57655   16.93085
      H1     2.90211   -3.25089   17.58196
       H     5.98693    0.04499   10.88328
       O     6.54467   -0.70089   11.07894
      H1     6.54074   -0.80769   12.07003
       H    11.44367    7.02505   13.34138
       O    10.55283    7.43610   13.47400
      H1    10.78238    8.35939   13.37152
       H     8.97427   -2.40959   18.53670
       O     8.95497   -3.36318   18.28446
      H1     9.87714   -3.54350   18.04971
       H     6.28216    7.00854   12.28736
       O     5.33333    6.89766   12.08554
      H1     5.18471    5.93461   12.12509
       H     1.38302    0.71195   13.00479
       O     1.51935    0.03996   12.36568
      H1     2.16874    0.45746   11.79886
       H     5.76533   -1.75269   14.17684
       O     6.61254   -2.01141   13.83892
      H1     6.41169   -2.82175   13.40209
       H     2.48412    5.54703   11.89585
       O     3.13577    4.92594   11.53476
      H1     3.27063    4.28054   12.29913
       H     8.03235    2.13041   14.28327
       O     7.16633    1.94526   13.88222
      H1     6.74096    2.79934   13.73229
       H     0.18161    0.61342   16.10797
       O     0.98252    0.76988   16.61899
      H1     1.47015    1.49876   16.21291
       H    -0.74808    8.04436   17.26036
       O    -0.44386    8.54228   16.53511
      H1    -0.00650    7.85573   15.98158
       H     8.45185    6.71367   10.96946
       O     8.17949    6.47903   11.86392
      H1     8.97677    6.59203   12.40082
       H     0.39361   11.60899   16.23436
       O     0.08502   11.12809   15.47603
      H1    -0.15582   10.25154   15.83887
       H     2.91033    6.53936   15.49247
       O     3.37423    5.76289   15.10610
      H1     3.81690    5.40362   15.92251
       H    11.49791    4.94661   14.43706
       O    12.09094    5.03371   13.69103
      H1    11.55406    4.46908   13.19023
       H     7.38271    8.63453   16.98723
       O     8.23638    9.17312   16.94642
      H1     8.75516    8.78892   17.60823
       H     0.47649    5.24776   17.95209
       O     1.37204    5.53625   17.92192
      H1     1.74132    5.34731   18.80023
       H     2.22164    7.33479   18.48319
       O     1.98467    8.29235   18.22906
      H1     1.47219    8.18348   17.38580
       H     6.44746    1.67941   17.47144
       O     6.19999    1.99575   18.34791
      H1     7.04025    2.39816   18.65796
       H    -0.07334    0.99836   18.20441
       O    -0.66658    1.55975   18.78315
      H1    -1.27415    0.84359   19.14732
       H     2.90504    3.81702   16.76935
       O     2.21647    3.33470   16.30039
      H1     1.47089    4.04025   16.34311
       H     4.80555    9.88807   16.48918
       O     4.83543    9.20279   15.80751
      H1     5.27820    9.51610   15.03013
       H     5.61230    1.00293   13.39660
       O     4.67092    0.85453   13.31242
      H1     4.50595    0.21456   14.03562
       H     9.99707    6.41428   15.29966
       O     9.84675    5.48511   15.46056
      H1     8.89240    5.46908   15.34081
       H     1.19425    2.70565   12.92228
       O     0.22386    2.42794   13.04936
      H1    -0.16831    2.87414   12.26519
       H    10.62208    4.85201   18.52659
       O    10.71572    4.18125   17.74924
      H1    10.30934    4.77395   17.09982
       H    -3.41715    5.93982   17.02702
       O    -3.22771    6.46949   16.21449
      H1    -3.58290    7.41714   16.43439
       H    11.76610    2.86123   16.53988
       O    11.55906    2.14664   15.84649
      H1    12.48387    1.95185   15.45088
       H     7.34470    1.10209   15.52740
       O     7.74964    0.62340   16.26794
      H1     7.22048   -0.14840   16.48110
       H     3.71692   11.84112   14.51207
       O     4.25183   12.26774   15.13134
      H1     4.02459   13.21216   15.02974
       H     6.23635   -1.47961   17.74071
       O     6.11867   -1.57980   16.79115
      H1     6.29286   -2.50437   16.63723
       H    -1.42763    6.78963   15.15416
       O    -0.85869    6.63817   14.41200
      H1    -1.42277    6.94892   13.74127
       H     0.68978    6.65900   13.37059
       O     1.64513    6.67435   13.06344
      H1     2.08093    6.07556   13.73498
       H     6.20351    4.67033   13.53077
       O     5.73238    4.12335   12.82015
      H1     6.46778    3.89376   12.22653
       H     7.80267    2.64325   10.29313
       O     7.57368    3.36811   10.90112
      H1     7.20527    4.02426   10.30024
       H     3.68594    2.19098   13.65310
       O     2.88012    2.73698   13.63356
      H1     2.75160    2.95439   14.62794
       H     9.79892    0.15354   18.53875
       O     9.32618   -0.42842   19.14493
      H1     8.48473    0.03895   19.11110
       H     5.59845    5.87577   15.03991
       O     6.10830    5.17617   15.42661
      H1     5.66915    5.21308   16.30116
       H    10.64562    8.96424   18.42783
       O    10.56009    8.09103   17.96779
      H1    10.74782    7.51015   18.73980

