180
frame 7 | Written by MDAnalysis XYZWriter (release 2.4.3)
       H     1.23189    4.21535   -8.91131
       O     0.66966    4.99033   -8.59686
      H1     0.31094    5.34657   -9.36426
       H    -3.27183    9.21589   -2.67405
       O    -3.88333    8.84315   -3.32468
      H1    -3.91436    9.54824   -4.02034
       H    -6.16132    3.03860   -5.36924
       O    -6.75607    3.81333   -5.09117
      H1    -6.43780    4.53604   -5.65654
       H    -9.79308    7.70449  -10.38573
       O   -10.07427    6.81358  -10.63031
      H1    -9.89066    6.72813  -11.59482
       H    -2.54730   11.81073   -7.70400
       O    -2.02150   10.99085   -7.71478
      H1    -1.53227   11.16391   -8.48211
       H    -7.39518    1.90022   -7.87109
       O    -7.30855    1.18862   -7.20333
      H1    -8.17745    0.83061   -7.05280
       H    -7.04777   -1.17049   -9.58797
       O    -7.85864   -0.82925   -9.17112
      H1    -7.53884   -0.22699   -8.48297
       H    -3.45934    5.07561  -12.70402
       O    -3.55877    4.57485  -13.47846
      H1    -4.54484    4.73892  -13.62750
       H    -1.82678    3.75078   -4.49657
       O    -0.88344    3.85080   -4.83484
      H1    -0.69054    4.78380   -4.84957
       H    -2.86559    8.39621  -13.71478
       O    -2.41509    8.87051  -12.97946
      H1    -3.21765    9.33327  -12.57393
       H    -0.04054    8.72472   -7.99156
       O    -0.44333    8.51678   -7.12436
      H1    -0.95394    9.32482   -6.98258
       H    -4.38672    3.60483   -3.77640
       O    -3.61647    3.88458   -4.25893
      H1    -4.05946    4.21433   -5.03318
       H    -2.83472    0.72788   -4.25623
       O    -2.44930    0.21072   -3.52665
      H1    -1.60390    0.68902   -3.35466
       H    -0.74409    5.76392  -11.47204
       O    -0.12704    4.98938  -11.46710
      H1    -0.13378    4.76872  -12.43738
       H    -6.03253    3.95762   -1.99971
       O    -5.80299    3.32023   -2.66726
      H1    -6.27556    3.73257   -3.40439
       H    -0.98868    6.69751   -3.74504
       O    -0.12306    6.33699   -3.49257
      H1    -0.41697    5.70342   -2.80271
       H     1.71349    8.23918   -9.20517
       O     0.85797    8.38549   -9.64495
      H1     0.77631    7.80169  -10.39790
       H    -2.22729    4.81334   -9.81120
       O    -2.30163    3.93141   -9.47744
      H1    -1.78380    3.99582   -8.65366
       H    -7.01102    8.84586  -11.33592
       O    -7.44519    9.47320  -10.68723
      H1    -6.87738    9.16379   -9.95432
       H    -9.05811    7.89129   -7.59003
       O    -8.69946    8.02923   -6.68082
      H1    -9.21766    7.34844   -6.19630
       H    -1.32700    1.44000  -11.28463
       O    -0.63209    2.01940  -10.86239
      H1    -1.15662    2.74480  -10.48523
       H    -6.81510    8.37041   -7.61941
       O    -6.37466    8.13458   -8.49290
      H1    -6.59923    7.19767   -8.63730
       H    -6.49022    6.01283   -0.18258
       O    -5.68646    5.74967   -0.70238
      H1    -4.99505    6.27569   -0.41218
       H    -8.15963    0.03472  -10.50020
       O    -8.63648    0.41362  -11.25262
      H1    -8.85848   -0.38333  -11.73435
       H    -8.48694    4.11507  -13.09904
       O    -7.94228    4.90327  -12.93859
      H1    -8.69619    5.58655  -13.05406
       H    -6.51540    0.09124   -2.57678
       O    -6.18152   -0.50074   -3.28199
      H1    -5.68184   -1.22624   -2.82955
       H    -5.94037    8.10365  -13.64576
       O    -6.11546    8.24985  -12.72715
      H1    -5.31936    8.78569  -12.57747
       H    -9.66336   -0.06129   -5.31989
       O    -9.63369    0.08604   -6.29262
      H1   -10.15682    0.93205   -6.33310
       H    -3.36841    7.25717   -3.44336
       O    -2.90698    6.40402   -3.23739
      H1    -3.51813    5.72316   -3.52683
       H    -6.88473    2.01619   -2.17121
       O    -7.52350    1.44839   -1.67625
      H1    -7.21065    1.62594   -0.78373
       H    -3.04584    0.75868   -7.14652
       O    -3.18174    0.75172   -6.19429
      H1    -4.12905    0.97108   -6.14033
       H    -0.24279    0.80067   -7.50853
       O     0.10598    0.05893   -7.97957
      H1     0.51432    0.37633   -8.78290
       H    -5.87410    5.14659   -8.74146
       O    -6.62435    5.45086   -9.31833
      H1    -6.15271    5.34415  -10.17490
       H    -5.18170   -2.04448  -11.04968
       O    -5.41486   -1.59263  -10.23787
      H1    -4.76935   -0.86065  -10.37769
       H   -10.49471    5.84092   -5.03858
       O    -9.58760    6.17063   -5.04812
      H1    -9.35010    6.04597   -4.10647
       H   -10.31597    2.18982   -9.07917
       O    -9.56673    2.26439   -9.69922
      H1    -9.63351    1.42862  -10.21201
       H    -3.33766    9.95283   -8.29836
       O    -3.95833    9.47563   -8.92369
      H1    -4.79626    9.38061   -8.50136
       H    -5.77730    9.97312   -0.66918
       O    -6.26128    9.58837   -1.42195
      H1    -5.54609    9.04651   -1.82228
       H    -8.36187    2.87779   -1.39783
       O    -8.57454    3.76492   -1.05191
      H1    -8.78704    4.29571   -1.83285
       H    -6.45647    5.34513  -11.93724
       O    -5.55885    5.61183  -11.64937
      H1    -5.60861    6.53841  -11.54321
       H    -9.03153    9.75386   -5.18433
       O    -9.07168   10.61962   -4.73797
      H1    -9.67604   10.37016   -4.01804
       H   -10.30262    3.96425   -9.58026
       O   -11.12807    4.50997   -9.63693
      H1   -10.73767    5.34335   -9.98222
       H    -0.16422    3.57959   -7.66558
       O    -0.80845    2.95041   -7.37350
      H1    -0.82953    3.25470   -6.41103
       H   -10.81947    2.62348   -6.55370
       O   -11.13585    1.99286   -7.22212
      H1   -12.05158    2.08868   -7.35805
       H   -10.40173    9.88884   -8.76331
       O    -9.96100    9.18504   -9.25274
      H1    -9.46079    9.75161   -9.86264
       H     0.89727    7.04550   -4.78942
       O     1.40036    7.61085   -5.38985
      H1     0.70383    7.92673   -6.02777
       H    -6.99577    3.83202   -9.45561
       O    -6.88335    2.85959   -9.24820
      H1    -7.81044    2.63502   -9.47169
       H    -3.87998   11.90643   -3.94386
       O    -3.80501   11.28640   -4.64490
      H1    -4.15652   11.73685   -5.44973
       H    -4.85706   11.30217  -11.22652
       O    -4.22318   10.56047  -11.37753
      H1    -4.18644   10.10465  -10.49383
       H    -1.64647    7.55745   -8.03818
       O    -2.44980    7.17022   -8.45292
      H1    -3.03434    7.96677   -8.49159
       H    -1.89332    7.77596  -11.54365
       O    -1.92528    6.97970  -11.00639
      H1    -2.07815    7.28128  -10.12632
       H    -3.91252    4.36042   -7.41996
       O    -4.57717    5.00163   -7.33647
      H1    -4.02788    5.72827   -7.66558
       H     0.20260    0.92931   -4.37155
       O    -0.00540    1.61298   -3.65239
      H1    -0.06587    2.41219   -4.19707
       H    -1.74571    0.54279   -8.65157
       O    -2.69811    0.61292   -8.71612
      H1    -2.75118    1.45488   -9.16412
       H   -10.06917    6.46581   -2.40369
       O    -9.20588    6.03716   -2.37137
      H1    -8.81088    6.22848   -1.46919
       H    -5.35563    1.80817  -11.94869
       O    -5.29259    1.39467  -11.11180
      H1    -5.89246    1.93606  -10.59240
       H    -6.10879    1.44780   -5.90186
       O    -5.43742    1.49555   -5.19275
      H1    -5.75582    0.72514   -4.64886
       H    -6.77989   11.76326   -6.18735
       O    -6.59425   11.37195   -7.08033
      H1    -7.31795   11.76197   -7.68962
       H    -8.66164    3.08627   -5.41901
       O    -9.60160    3.34480   -5.51623
      H1    -9.45980    4.30941   -5.50241
       H     3.31039    6.50930   -6.67657
       O     3.26372    5.68582   -7.16609
      H1     2.29484    5.58387   -7.32227

