180
frame 103 | Written by MDAnalysis XYZWriter (release 2.4.3)
       H   -13.32877   14.31962   -2.25111
       O   -12.38703   14.09322   -2.37192
      H1   -12.04986   14.94837   -2.30344
       H    -8.50408   17.46824   -4.43682
       O    -8.50401   17.26304   -5.38836
      H1    -7.64017   16.83273   -5.50126
       H   -10.28973   10.15220   -4.23256
       O   -10.07998   11.12210   -4.23128
      H1   -10.86552   11.44495   -3.81441
       H    -4.03693   17.87682   -7.13487
       O    -4.89654   18.29486   -6.86833
      H1    -4.57926   19.11649   -6.43167
       H    -3.02054   13.94882   -8.53803
       O    -3.42407   13.13233   -8.79193
      H1    -4.33469   13.38430   -8.95152
       H    -0.33318   17.08419   -4.49100
       O     0.30930   17.61479   -4.99694
      H1     1.08386   17.35409   -4.46704
       H    -4.25167   14.10460   -2.55758
       O    -3.55986   14.05935   -3.24737
      H1    -3.08596   13.24700   -3.00853
       H    -4.15485   19.82013   -2.58970
       O    -4.67557   19.01800   -2.31165
      H1    -5.50253   19.45101   -2.03631
       H    -3.19190   19.47919   -9.28500
       O    -2.63147   18.73495   -9.57608
      H1    -2.90477   18.65629  -10.55255
       H   -13.29754   18.41030   -4.88714
       O   -12.60488   17.75439   -4.63148
      H1   -12.68194   17.62361   -3.68394
       H    -9.85790   18.32816   -5.26475
       O   -10.34785   19.19259   -5.09047
      H1   -11.15243   18.88045   -4.67930
       H    -5.62223    8.31331   -6.95709
       O    -6.53303    8.57612   -6.78340
      H1    -6.91983    7.83395   -6.32602
       H    -4.68309   18.43284  -11.35116
       O    -3.99246   18.71342  -11.96748
      H1    -3.91851   19.72746  -11.82141
       H    -8.81517   12.18822   -6.43797
       O    -8.06519   11.70957   -6.78602
      H1    -7.46196   11.94802   -6.06919
       H    -8.67865   13.97881  -14.57119
       O    -8.44449   13.87381  -13.62173
      H1    -8.92821   13.07671  -13.38044
       H    -6.11028   18.76364   -8.54564
       O    -6.75287   18.72380   -9.22843
      H1    -7.59447   19.14087   -8.94047
       H   -12.48034   13.59232   -7.41112
       O   -13.41373   13.77464   -7.30438
      H1   -13.74248   13.17376   -8.01471
       H    -3.14204    9.69767   -8.99446
       O    -3.34066    9.69387   -9.94068
      H1    -2.56031    9.16463  -10.23849
       H   -13.18592   19.92734   -8.20933
       O   -12.93957   19.34771   -7.49938
      H1   -13.57262   18.62115   -7.60515
       H    -0.04181   12.06644   -5.85524
       O     0.23468   11.80806   -4.96171
      H1    -0.55169   11.91500   -4.42078
       H    -8.01593   13.25322    0.06622
       O    -7.99451   13.77147   -0.77467
      H1    -8.81638   14.28037   -0.55965
       H    -8.80260   17.01448  -12.77138
       O    -8.10047   17.66828  -12.71451
      H1    -8.42555   18.30154  -12.03352
       H    -6.77430    9.95775   -8.75987
       O    -6.89681    9.74502   -9.65825
      H1    -7.83923    9.42836   -9.61835
       H    -2.61295   17.25293   -8.44017
       O    -3.03158   16.70301   -7.67798
      H1    -2.21848   16.21363   -7.33251
       H    -0.72715   15.54163   -5.66415
       O    -0.92637   15.29057   -6.53626
      H1    -0.06335   15.52677   -6.93443
       H   -11.57125   17.92956   -7.45346
       O   -11.26573   16.99428   -7.57510
      H1   -10.67611   16.92213   -6.79881
       H   -13.49057   13.05958   -5.21526
       O   -12.71245   12.76355   -4.70634
      H1   -12.74171   13.25093   -3.87291
       H   -10.93158   16.74221   -1.13468
       O   -11.17205   16.58972   -2.06704
      H1   -10.33736   16.55993   -2.52715
       H   -11.25297   18.96172  -10.51068
       O   -10.68502   19.70951  -10.74282
      H1   -10.27803   20.02160   -9.91826
       H    -5.90235   16.26798   -7.27683
       O    -6.48670   15.71629   -6.77741
      H1    -5.79104   15.24548   -6.29526
       H    -3.67871   16.98974   -0.65005
       O    -3.13722   16.46206   -1.27284
      H1    -3.43413   16.73283   -2.15339
       H   -10.43292   16.50723   -9.31410
       O   -10.65565   16.32174  -10.22999
      H1   -11.58136   16.61385  -10.16484
       H    -1.97435   15.15909  -13.19180
       O    -2.19777   15.63557  -12.38539
      H1    -1.98148   15.03699  -11.69140
       H    -4.49053   12.93017   -5.56134
       O    -4.98317   13.69546   -5.31592
      H1    -4.51820   13.94922   -4.49328
       H    -7.94213   14.82951   -7.63705
       O    -8.76197   14.62012   -8.10408
      H1    -8.47917   14.83695   -9.00692
       H   -11.03369   20.16918   -2.56384
       O   -10.45284   19.51849   -2.09849
      H1   -11.09226   18.81630   -2.13576
       H    -5.83282   16.12961  -14.19372
       O    -6.51496   16.66503  -14.69271
      H1    -7.30690   16.77198  -14.08944
       H    -6.77906   10.36151   -2.41916
       O    -6.24061    9.98336   -1.78072
      H1    -6.11728   10.75584   -1.20688
       H   -11.73697   14.04063   -9.98945
       O   -12.37869   13.51872  -10.49969
      H1   -11.81424   12.72602  -10.71187
       H    -2.14123   12.90518  -11.54393
       O    -1.83565   13.37171  -10.74299
      H1    -2.53939   13.05480  -10.07944
       H    -8.78170   13.52363  -10.55195
       O    -9.57986   13.77487  -11.00687
      H1    -9.80396   14.70460  -10.81021
       H    -4.84389    9.57164   -4.11414
       O    -4.21648    9.01524   -3.57766
      H1    -4.62057    9.22374   -2.73564
       H    -6.70013   17.03732   -9.59602
       O    -6.84937   16.21903  -10.10204
      H1    -6.40702   15.61717   -9.48994
       H    -2.76674   10.52288   -3.54454
       O    -2.38427   11.39124   -3.42909
      H1    -1.79743   11.19940   -2.67659
       H    -7.96797   12.84027   -2.65955
       O    -7.64194   12.20136   -3.38142
      H1    -8.56188   12.04167   -3.72856
       H    -4.05022   15.47229  -12.74093
       O    -4.90547   15.13411  -13.12649
      H1    -5.56598   15.25911  -12.46644
       H   -10.64339   15.50844  -13.72308
       O   -10.69267   16.30786  -13.16535
      H1   -10.69635   15.95368  -12.27988
       H    -0.75309   13.70471   -7.45568
       O    -0.64115   12.77857   -7.72189
      H1     0.25777   12.76793   -8.04653
       H   -10.76749   11.34710   -7.79767
       O   -11.15564   10.46015   -7.87869
      H1   -10.46518    9.88437   -7.61153
       H    -7.31598   13.41538  -12.51864
       O    -6.57268   12.96924  -11.97677
      H1    -5.77328   13.26540  -12.39524
       H    -6.70288   16.94105   -0.72110
       O    -6.40521   17.03747    0.17649
      H1    -7.25222   16.91561    0.63100
       H    -1.68295   15.06839   -3.35806
       O    -1.67597   15.89377   -3.88864
      H1    -2.60232   16.00485   -4.12449
       H    -7.08282   18.29043   -2.25770
       O    -7.34407   17.46298   -2.63269
      H1    -6.55693   17.19770   -3.13412
       H   -10.18943   13.73578   -6.97116
       O   -10.75118   12.96900   -6.79365
      H1   -11.27836   13.08397   -5.97038
       H    -6.79184   10.73841   -4.73177
       O    -5.94055   10.36037   -5.01771
      H1    -6.22716    9.74259   -5.71955
       H    -2.03660   10.35426   -7.18372
       O    -3.00862   10.37146   -7.37137
      H1    -3.12519   11.12166   -8.01216
       H    -4.83312   12.64531   -0.27087
       O    -4.90755   11.64012   -0.05450
      H1    -5.04535   11.70732    0.89204
       H    -6.41251   13.12536  -10.04112
       O    -5.98969   13.40027   -9.20109
      H1    -6.63950   13.07401   -8.58943
       H    -4.92857   17.27390   -4.79951
       O    -4.97450   17.01968   -3.89008
      H1    -4.94578   17.90901   -3.48220
       H    -4.88794   15.08482   -1.08862
       O    -5.21577   14.22356   -1.19681
      H1    -6.15638   14.30821   -1.04997

