180
frame 8 | Written by MDAnalysis XYZWriter (release 2.4.3)
       H   -12.51586    7.36670   15.27959
       O   -11.92105    6.72481   15.75756
      H1   -11.76741    7.14947   16.60674
       H   -15.96883    6.40653    9.82302
       O   -15.63203    6.92579   10.59385
      H1   -16.14151    7.71302   10.57333
       H   -16.02337    1.67100   18.95663
       O   -15.53551    0.88411   18.51297
      H1   -15.82519    0.13757   19.06981
       H   -19.10662    0.96776   10.47102
       O   -19.74713    1.50422   10.03675
      H1   -19.26191    2.26551    9.71041
       H   -10.85818    7.28662   14.53074
       O   -10.41711    7.75088   13.75882
      H1    -9.50366    7.75859   14.11093
       H   -12.66007    6.78898   11.71020
       O   -13.44729    6.68859   12.28292
      H1   -14.19575    6.87078   11.68395
       H   -16.98114    0.28446   10.14733
       O   -17.32719    0.54581   10.99560
      H1   -16.62228    1.16132   11.28208
       H   -12.70103   -1.45484   16.57117
       O   -12.54982   -0.54997   16.28984
      H1   -11.91997   -0.73218   15.52754
       H   -16.32079    2.91502   16.24289
       O   -16.88106    2.15156   16.31816
      H1   -16.39578    1.72401   17.01889
       H   -12.49395   10.14319   14.04607
       O   -11.88045   10.82293   14.18721
      H1   -11.14135   10.38016   14.61272
       H   -12.57762    3.80811   15.15094
       O   -11.86992    4.17261   14.58120
      H1   -11.67367    4.99256   15.08816
       H   -10.39847    5.83082   18.15956
       O   -11.18087    5.35317   18.44284
      H1   -10.95327    4.41096   18.58417
       H    -9.74866    1.48743   16.44788
       O    -9.90127    2.45325   16.50988
      H1    -9.37570    2.90232   17.22506
       H   -10.33276   -0.90885   10.50184
       O   -10.84396   -0.89722    9.69357
      H1   -11.63243   -0.48292   10.08041
       H   -14.37567    8.56685   14.44610
       O   -13.42567    8.53049   14.36114
      H1   -13.32725    8.01122   13.52358
       H   -14.28352    3.04537   16.33497
       O   -14.63881    3.78217   15.80187
      H1   -14.57118    4.49218   16.42325
       H   -18.90252    4.59751   16.71327
       O   -18.27226    4.94949   17.36016
      H1   -18.53219    5.88257   17.35716
       H    -9.05796    5.10474    9.04475
       O    -8.97943    5.97206    9.57594
      H1    -9.11343    5.65779   10.52940
       H    -9.22896    3.24149   15.10210
       O    -8.40307    3.68566   14.73536
      H1    -7.81589    2.89762   14.82404
       H   -11.17152    1.79876   11.58775
       O   -10.56020    1.76616   10.84086
      H1   -11.14186    2.17970   10.11441
       H   -16.25532   10.03120   14.89272
       O   -15.92507    9.27053   15.37506
      H1   -16.53018    8.50425   15.13445
       H   -13.23837    8.88629   18.37902
       O   -12.73388    8.04415   18.25929
      H1   -13.48786    7.48625   17.90756
       H   -11.78621   -0.31082   18.44376
       O   -12.46288   -0.17990   19.09560
      H1   -13.13842    0.29274   18.60953
       H   -11.90939    0.80486    8.15240
       O   -12.18688    1.72369    8.37650
      H1   -12.94456    1.96131    7.83807
       H   -11.21378   -0.08352   13.49069
       O   -11.06186   -0.94726   13.90152
      H1   -10.16071   -1.16014   13.70127
       H   -10.53504    6.64289    9.87045
       O   -11.44610    7.06021    9.91376
      H1   -11.37716    7.95793    9.43960
       H   -18.45457    2.48558   14.28905
       O   -19.06538    1.90098   13.76297
      H1   -18.58529    1.05736   13.75985
       H   -17.86960    9.38972    9.87702
       O   -17.29270    9.21175   10.60973
      H1   -16.78815   10.00052   10.56299
       H   -18.70025    1.69911   16.87575
       O   -19.29210    1.24529   17.54631
      H1   -19.02706    0.30990   17.36570
       H   -16.83515    4.61980   13.35401
       O   -17.27697    4.60407   14.22733
      H1   -16.59239    4.71255   14.85628
       H    -9.84303    6.04258   12.92026
       O    -9.33137    5.69165   12.18794
      H1    -8.69296    5.17319   12.71347
       H   -15.42374   -0.64411   16.86327
       O   -15.12156   -1.10307   16.08667
      H1   -14.27127   -0.64340   15.86482
       H    -8.49734    2.59113   13.01601
       O    -8.31278    2.29480   12.14791
      H1    -9.26573    2.19453   11.81652
       H   -12.67662    6.34052    8.42360
       O   -13.48742    5.99015    8.08531
      H1   -13.35072    5.97145    7.14288
       H   -17.98164    7.73312   13.48100
       O   -17.90176    7.34869   14.40404
      H1   -17.58359    6.41672   14.19765
       H   -14.39183    1.74164   10.92858
       O   -14.75776    1.88962   11.81644
      H1   -14.63230    2.88940   11.86975
       H   -15.94734    3.08237    7.49245
       O   -16.86245    2.86146    7.22620
      H1   -17.36437    3.53187    7.72939
       H   -19.02119    7.44434   15.95088
       O   -19.27524    7.68419   16.85098
      H1   -18.66563    8.41741   16.82528
       H   -14.38094    5.08756   12.26129
       O   -14.85887    4.31810   12.66995
      H1   -14.58208    4.58341   13.55053
       H   -16.97690    6.37633    7.50782
       O   -16.59187    5.63479    7.98487
      H1   -15.64561    5.75706    7.97650
       H   -16.88029   11.21605   12.78388
       O   -16.89078   11.22610   13.75892
      H1   -17.63871   11.78051   13.96968
       H   -13.97473    5.72075   18.09856
       O   -14.16890    6.01251   17.15392
      H1   -13.29510    5.99278   16.61872
       H   -18.47658   -0.98845   11.38209
       O   -18.84411   -1.81702   11.68245
      H1   -18.16771   -1.99305   12.34791
       H   -16.14256    1.07958    7.81894
       O   -16.15039    0.35608    8.48267
      H1   -15.24843    0.30105    8.80460
       H   -16.68631   -0.56763   14.35844
       O   -17.61792   -0.49767   14.54577
      H1   -17.51190   -0.12668   15.43961
       H   -14.35803   -0.79519   10.70398
       O   -13.84379   -0.33763   10.04251
      H1   -13.59816   -1.00753    9.43794
       H   -13.16007    4.57129    9.61582
       O   -13.19730    3.81757   10.17509
      H1   -13.06473    3.03278    9.59624
       H   -14.50680   -0.89246   13.02667
       O   -15.14786   -0.21858   13.32171
      H1   -14.79765    0.56554   12.90786
       H   -12.94322    1.78909   12.70916
       O   -12.03639    1.70568   13.05642
      H1   -11.75589    2.63756   13.30939
       H   -17.79440    6.13225   10.57290
       O   -18.68920    6.14533   10.86931
      H1   -18.64984    5.51992   11.62812
       H   -19.28644    4.67164    9.12672
       O   -18.94289    3.86965    8.65472
      H1   -19.25983    4.02119    7.73250
       H   -12.02826    2.28104   18.64284
       O   -11.85436    2.93316   19.43251
      H1   -11.92712    2.24750   20.13641
       H   -11.00206    8.96698   11.02278
       O   -11.24464    9.77445   11.45894
      H1   -11.01670    9.66648   12.43936
       H   -12.24178   -1.99425   13.12207
       O   -13.08797   -2.25179   12.65402
      H1   -13.13198   -3.17700   12.94128
       H   -15.97829    3.96029   19.35616
       O   -16.72039    3.31387   19.30538
      H1   -17.34905    3.68434   18.66288
       H    -8.46568    6.49134   17.25047
       O    -9.18332    6.97419   17.58958
      H1    -9.16665    7.82418   17.18708
       H   -12.70082    1.06896   16.60514
       O   -12.58113    2.01783   16.85913
      H1   -11.78174    2.22919   16.40616
       H   -12.99035    9.88624   11.20562
       O   -13.77352   10.14751   10.68935
      H1   -13.56915    9.84304    9.82716
       H   -19.31631    7.57729   11.97782
       O   -19.32734    8.45148   12.39668
      H1   -18.81671    8.97681   11.75760
       H   -17.04702    9.78623   16.85703
       O   -17.92356    9.99828   17.17017
      H1   -17.80880    9.79097   18.09691

