180
frame 12 | Written by MDAnalysis XYZWriter (release 2.4.3)
       H    -3.40442   10.37646   -2.12352
       O    -3.56779    9.72262   -2.80514
      H1    -3.16959   10.23142   -3.53272
       H    -5.53648    2.95206   -4.36681
       O    -5.51811    3.90234   -4.19883
      H1    -5.10798    4.32794   -4.93580
       H    -4.87123    8.90035    0.48052
       O    -4.39035    8.14887    0.02093
      H1    -4.45520    7.42306    0.59549
       H   -10.31051    8.26713   -2.38719
       O   -10.55552    7.36355   -2.57388
      H1   -11.08349    7.42908   -3.39874
       H    -8.94828    2.71019   -0.97953
       O    -9.36497    2.40594   -0.15503
      H1    -8.55568    2.10705    0.35507
       H    -2.89580    5.08173   -2.79491
       O    -2.47228    5.17893   -3.65747
      H1    -3.19520    5.47797   -4.23679
       H   -12.75966    3.31829    2.64388
       O   -13.60455    3.76297    2.90826
      H1   -13.48324    4.61099    2.41837
       H   -12.86761    4.04494   -1.71625
       O   -12.79235    3.86361   -0.74666
      H1   -13.68218    3.74843   -0.48629
       H   -10.82055    0.54063   -2.01075
       O   -11.45612    1.22185   -1.74934
      H1   -10.85566    1.88677   -1.40082
       H    -5.14247    5.31891   -1.61443
       O    -4.66831    4.46090   -1.70071
      H1    -4.84078    4.09288   -2.60374
       H   -10.15955   12.18797    3.36543
       O   -10.40587   12.89885    3.94580
      H1    -9.88865   13.57602    3.60328
       H   -12.35094    6.23703   -6.18860
       O   -11.55684    5.90678   -6.59346
      H1   -11.77451    5.95726   -7.56843
       H    -9.88045    9.96868   -7.58110
       O    -9.49673   10.07314   -6.66602
      H1    -9.39337    9.13947   -6.46308
       H    -7.69122    7.74640   -6.76668
       O    -6.77675    8.06314   -6.88107
      H1    -6.45736    7.36022   -7.48099
       H    -6.61942    6.54821   -1.22794
       O    -5.96988    6.74291   -1.98799
      H1    -5.29229    7.22526   -1.53677
       H   -12.71674   11.76245   -0.77651
       O   -11.97643   12.03089   -0.24898
      H1   -11.78791   12.94007   -0.44187
       H    -8.95477   11.12142    1.15149
       O    -8.22024   11.27592    0.52920
      H1    -7.40539   10.98432    0.96125
       H    -7.98760    6.03717    5.87397
       O    -7.21372    6.53238    6.03550
      H1    -6.90668    6.66263    5.14705
       H    -5.31579   10.72856    1.84686
       O    -5.70937   10.13028    1.25372
      H1    -6.28477    9.57342    1.82449
       H   -11.27004   10.22716    2.55158
       O   -10.76136   10.76414    1.90679
      H1   -11.48021   11.17817    1.42129
       H    -7.10027    9.11975   -1.72785
       O    -7.90663    9.13494   -1.19578
      H1    -7.77818    9.83617   -0.54752
       H    -9.43007    7.80684    3.50606
       O    -9.00562    6.96594    3.50131
      H1    -9.59472    6.44546    2.90709
       H    -8.65518    2.84895    4.10246
       O    -9.49367    3.30428    4.33199
      H1    -9.84857    2.87020    5.11182
       H   -11.22088   10.72522   -5.86458
       O   -12.14020   11.04858   -5.78150
      H1   -12.52708   10.80190   -6.64740
       H    -1.48717    8.23156   -1.56500
       O    -1.82563    8.70287   -0.74737
      H1    -2.69741    8.35429   -0.57585
       H    -4.27564   12.56988   -0.69644
       O    -4.77968   13.38152   -0.78333
      H1    -4.62026   13.78759    0.06612
       H   -14.16913    9.70704   -2.78984
       O   -14.73193    8.89769   -2.71212
      H1   -14.37474    8.42900   -1.89394
       H    -1.68431    5.44996    2.20497
       O    -2.61312    5.46164    2.25555
      H1    -2.74662    5.72456    3.19351
       H    -8.48413   10.01428    4.35157
       O    -9.27533    9.83834    4.84522
      H1    -9.58972   10.67283    5.20851
       H    -6.55000    9.57530    3.87833
       O    -7.17151    9.28920    3.19220
      H1    -7.25868    8.37459    3.42006
       H    -7.29524    5.82766    3.06588
       O    -6.45030    6.29726    3.29220
      H1    -5.91952    5.62349    3.80525
       H    -7.64856   12.45360   -4.20904
       O    -6.82731   12.60341   -3.76989
      H1    -6.67882   11.85363   -3.19175
       H   -12.78699    3.21517   -5.58236
       O   -12.07680    3.29887   -4.96259
      H1   -11.60202    4.12664   -5.21865
       H   -13.79276   10.59926    1.97599
       O   -13.50489   10.14824    2.73352
      H1   -14.36806    9.79861    2.98061
       H    -8.28834   14.10277   -1.39535
       O    -8.78840   14.27003   -2.20026
      H1    -8.47491   13.53119   -2.77913
       H   -10.74368    2.00720    1.63693
       O   -11.39201    2.42932    2.28553
      H1   -10.76679    2.61640    3.02755
       H   -14.92711    2.12380   -0.71696
       O   -14.60405    1.95389   -1.60054
      H1   -13.76368    2.42230   -1.63623
       H    -4.96363    1.54374   -2.10156
       O    -5.64156    1.69218   -1.41419
      H1    -5.12549    2.06840   -0.66208
       H   -16.56283    6.71900    1.09774
       O   -15.92705    6.86130    1.84000
      H1   -15.06682    6.59331    1.45119
       H   -10.19158    6.99400   -6.33000
       O    -9.33565    7.35276   -6.36869
      H1    -8.94418    6.79235   -5.62742
       H    -9.77709    5.05580    0.58154
       O   -10.16829    4.99016    1.44780
      H1   -10.35307    4.08016    1.58719
       H    -4.44742    3.97108    0.22985
       O    -4.24296    3.39129    0.94901
      H1    -3.61019    3.93055    1.47289
       H    -2.48180   10.32249   -0.50517
       O    -2.55717   11.30172   -0.47108
      H1    -1.69097   11.66754   -0.68870
       H    -5.09798    9.57812   -3.18356
       O    -6.12645    9.59919   -3.15222
      H1    -6.28713    9.19170   -4.04723
       H    -7.19138    2.40255   -2.22288
       O    -8.03927    2.90988   -2.32303
      H1    -7.79304    3.36577   -3.14081
       H    -9.17328   11.00043   -5.13563
       O    -9.37898   11.73642   -4.52773
      H1    -9.71952   11.19127   -3.73395
       H    -9.90283    6.35862    5.20482
       O    -9.99266    5.82513    6.03849
      H1   -10.28673    6.54042    6.63868
       H    -9.57716    6.16347   -1.19087
       O    -8.72415    6.23221   -0.68823
      H1    -8.73397    7.17896   -0.57015
       H   -11.11167    8.30650    1.19361
       O   -11.51682    8.04586    2.04065
      H1   -12.42333    8.30649    1.90800
       H   -13.07575    7.36726   -0.21559
       O   -13.01890    8.19777   -0.69165
      H1   -12.20888    8.01031   -1.26190
       H   -13.76038   11.93876   -2.77657
       O   -13.15965   11.16445   -2.97382
      H1   -12.64044   11.45420   -3.76432
       H    -7.02027    0.82031    1.16460
       O    -7.65990    1.22754    1.77685
      H1    -8.15819    0.46362    2.04468
       H   -13.47334    7.73875   -4.45483
       O   -12.73678    7.11548   -4.43955
      H1   -13.15413    6.39959   -3.93733
       H   -12.34314    6.23230    1.18376
       O   -13.13348    5.73768    1.02286
      H1   -12.79826    5.03012    0.42777
       H    -7.62935   13.08716    0.19093
       O    -7.23712   13.92321    0.06882
      H1    -6.29258   13.67785   -0.11120
       H   -13.06616    3.99549   -3.65847
       O   -13.46910    4.65791   -3.09285
      H1   -14.44097    4.53590   -3.19539
       H    -8.99205    6.78589   -3.24061
       O    -8.41818    6.23391   -3.85344
      H1    -7.52915    6.31625   -3.38133
       H   -10.75363   10.50655   -1.68359
       O   -10.16453   10.15927   -2.33556
      H1    -9.31596    9.94573   -1.81235
       H    -8.53279    4.86354   -4.90934
       O    -8.62390    4.13670   -5.54847
      H1    -7.89225    4.22175   -6.12824
       H    -6.97267    2.41115    2.55430
       O    -6.42358    2.97221    3.14915
      H1    -5.62466    3.17408    2.61158

