180
frame 12 | Written by MDAnalysis XYZWriter (release 2.4.3)
       H    11.43045  -13.46780   -3.95851
       O    10.57842  -13.19553   -4.31972
      H1    10.81777  -12.36090   -4.79028
       H    12.45205  -11.83152  -14.66754
       O    12.59742  -10.89940  -14.46597
      H1    12.28659  -10.79968  -13.54464
       H     9.21504   -9.38324   -2.88299
       O     8.94093  -10.14932   -2.42878
      H1     8.25211   -9.91077   -1.83158
       H    12.55446   -8.43200   -5.78611
       O    13.14108   -9.07400   -5.38881
      H1    13.33098   -8.67554   -4.56220
       H    12.46653  -15.08257  -10.48196
       O    12.03495  -15.10284  -11.36325
      H1    12.45557  -15.87979  -11.74067
       H    12.94761  -16.40951   -8.26487
       O    13.21298  -15.55477   -8.64776
      H1    13.69915  -15.23639   -7.85025
       H     5.06689   -5.11814   -9.45196
       O     6.05428   -5.12317   -9.73470
      H1     6.00617   -4.24661  -10.14667
       H     9.46727   -3.44006  -12.40333
       O     9.17055   -2.82948  -11.69248
      H1     9.35697   -1.91041  -12.01331
       H     8.96567   -5.49483   -2.95509
       O     9.40618   -5.56854   -3.84674
      H1     8.62174   -5.83014   -4.37084
       H    13.79380   -5.70647   -9.91832
       O    12.90656   -6.01509  -10.13550
      H1    12.31404   -5.63981   -9.49524
       H     7.26171  -15.42866   -7.44089
       O     6.58841  -16.10968   -7.32610
      H1     7.11162  -16.83987   -6.93962
       H     8.44883  -12.83087   -4.46023
       O     7.76971  -12.27797   -4.83329
      H1     8.17919  -11.78321   -5.54792
       H    10.82459  -11.04750   -9.97682
       O    11.62368  -11.49477  -10.33726
      H1    11.33373  -12.04129  -11.16663
       H    12.39005   -4.45999  -10.94294
       O    12.67059   -3.69861  -11.51172
      H1    11.91705   -3.55982  -12.11101
       H    10.26130   -3.73671   -6.01645
       O     9.21361   -3.78850   -6.05457
      H1     9.11025   -4.07348   -5.12178
       H     3.71111   -6.88569   -5.74246
       O     4.06411   -7.36844   -6.49504
      H1     3.79966   -8.29164   -6.37814
       H    11.63934   -8.84196  -16.65568
       O    11.25540   -9.67097  -16.39548
      H1    11.86152   -9.99786  -15.71616
       H    10.14514  -16.20493   -8.60705
       O     9.58109  -16.46517   -9.37036
      H1     9.42782  -15.71067   -9.92304
       H     6.06600   -7.69860   -4.07573
       O     5.63630   -7.99949   -3.21326
      H1     5.48172   -7.10885   -2.84107
       H     4.50518   -6.90503  -14.57503
       O     4.67860   -7.29009  -13.70454
      H1     5.52724   -7.73501  -13.90599
       H     9.75426   -9.67037  -13.51907
       O     9.54400   -8.94224  -14.13721
      H1    10.01985   -9.27477  -14.94328
       H     4.72673  -13.61809   -8.70104
       O     4.18420  -14.21871   -9.25840
      H1     4.49978  -15.08474   -8.96191
       H    11.18541  -10.89400   -6.41112
       O    11.25837  -10.96617   -5.44810
      H1    12.03528  -10.36600   -5.39658
       H     9.42850   -7.04168  -14.25863
       O     9.09354   -6.18479  -14.49632
      H1     8.54964   -5.90347  -13.72998
       H     6.30605  -11.74433  -13.33937
       O     6.67305  -11.90964  -14.18658
      H1     5.92839  -11.94093  -14.77197
       H    14.59103   -7.93179   -7.72926
       O    14.41428   -6.97260   -7.37621
      H1    14.48520   -6.45723   -8.15838
       H     9.29446  -14.04720   -7.60018
       O     8.33166  -13.97261   -7.44882
      H1     8.17229  -13.65002   -6.50221
       H    15.99838  -10.44425   -7.44546
       O    15.59576   -9.68108   -7.04281
      H1    14.83884   -9.96047   -6.47167
       H    16.16748  -10.04846  -10.32768
       O    16.73372  -10.89572  -10.18402
      H1    15.98217  -11.47723  -10.35886
       H    10.74323   -3.57150  -14.17833
       O    10.81816   -4.29462  -13.51794
      H1    10.35345   -5.02543  -13.93121
       H     8.53206   -6.94904   -7.90567
       O     8.97873   -6.39112   -7.24529
      H1     9.64769   -5.86191   -7.73263
       H    10.63969   -4.08361   -8.45018
       O    10.93058   -5.00385   -8.52773
      H1    10.53453   -5.32317   -9.36232
       H    10.92429   -6.39391   -4.00097
       O    11.84037   -6.81192   -4.04060
      H1    11.88835   -7.34346   -3.18135
       H     9.68150   -8.76109   -9.62163
       O     9.67448   -9.72947   -9.54095
      H1     9.10162   -9.96929  -10.32838
       H     7.02408   -7.02378   -9.50914
       O     7.87473   -7.56812   -9.49546
      H1     7.68336   -8.24603   -8.85865
       H    14.60299   -7.74498  -13.99479
       O    15.48273   -7.90625  -13.66489
      H1    15.91756   -7.04814  -13.64442
       H     8.54080  -15.02122  -13.80007
       O     8.95153  -14.98839  -12.94898
      H1     8.30473  -14.55393  -12.39253
       H    10.68324   -8.13203   -4.91316
       O     9.95643   -8.73946   -4.78668
      H1    10.52564   -9.53096   -4.74153
       H    12.67786   -6.94158  -14.32472
       O    13.29415   -6.67631  -14.99516
      H1    12.82235   -6.93003  -15.84586
       H     9.28837   -6.94948  -10.36485
       O     9.99046   -6.34939  -10.74001
      H1    10.50202   -6.95500  -11.29554
       H    15.01104  -11.93437  -12.06307
       O    14.89247  -12.48967  -11.22059
      H1    15.22491  -13.35145  -11.39944
       H    12.65546   -7.46204   -7.24548
       O    11.70147   -7.60631   -7.20595
      H1    11.45986   -6.68388   -7.38245
       H     7.08204   -4.13445   -8.58407
       O     7.15745   -3.39283   -7.98051
      H1     7.88340   -3.64357   -7.38715
       H    11.76363  -13.15932   -9.01481
       O    11.27233  -13.59223   -8.32980
      H1    11.82513  -14.38506   -8.23780
       H     5.90760   -5.44753  -13.11472
       O     6.57786   -4.78066  -13.01712
      H1     6.53321   -4.35432  -13.84651
       H     7.15788  -10.80039  -10.52535
       O     7.57684  -11.15760  -11.33337
      H1     7.76772  -12.10035  -11.17417
       H     7.97246   -8.75572  -14.60316
       O     7.20281   -8.12398  -14.88795
      H1     7.85977   -7.37953  -14.91978
       H     9.94515  -13.29781  -12.98483
       O    10.71744  -12.93861  -12.52248
      H1    10.98357  -13.79809  -12.04329
       H     4.21091   -7.62577   -8.18229
       O     3.98200   -7.89942   -9.07684
      H1     4.81691   -8.32751   -9.33211
       H    13.75034  -10.19253  -12.50595
       O    12.91023   -9.80731  -12.18606
      H1    12.89160  -10.28286  -11.31529
       H     4.10184   -8.90941  -12.45455
       O     3.43630   -9.57049  -12.37282
      H1     2.80576   -9.07098  -12.89749
       H     8.75538  -10.01567   -7.41240
       O     8.12352   -9.67015   -6.78251
      H1     8.65791   -9.30399   -6.10051
       H    16.34839   -8.40974  -11.19546
       O    15.49115   -8.65179  -10.89690
      H1    14.98659   -8.57021  -11.74185
       H    12.19098   -8.18103  -12.30320
       O    11.99436   -7.26046  -12.68043
      H1    12.42138   -6.67456  -12.03583
       H     6.65035   -6.06301   -5.46555
       O     7.05850   -6.82003   -4.99788
      H1     7.50677   -7.30199   -5.66254
       H     7.73955  -13.88698   -9.43372
       O     7.75700  -13.83451  -10.39789
      H1     6.81494  -14.04040  -10.59327
       H    15.49109  -11.45210  -13.87822
       O    15.28852  -10.72730  -13.24503
      H1    15.90952  -10.06775  -13.56501
       H     3.80627  -12.82777  -10.85369
       O     4.29824  -12.10997  -11.27634
      H1     3.64804  -11.49825  -11.65777
       H     6.37954  -11.65034   -7.30956
       O     5.55781  -12.17695   -7.50800
      H1     5.22509  -12.10172   -6.62548
       H     5.04896  -10.53403  -10.28250
       O     5.64324   -9.99281   -9.75093
      H1     5.48867  -10.30340   -8.87094

