180
frame 10 | Written by MDAnalysis XYZWriter (release 2.4.3)
       H   -14.74943    5.53278   -1.88947
       O   -15.26236    6.34941   -1.61031
      H1   -16.08768    6.04764   -1.31157
       H   -13.06010    8.55925  -11.21102
       O   -13.50044    8.32163  -10.35896
      H1   -12.62765    8.17169   -9.90867
       H   -13.01702    4.77139   -8.79776
       O   -13.63451    4.62392   -8.06150
      H1   -13.29298    3.78017   -7.68331
       H   -10.61173    8.72315   -2.50086
       O   -11.01280    7.77362   -2.51774
      H1   -11.83389    8.08115   -2.98138
       H    -9.73017    2.34343   -1.78499
       O    -9.92055    1.94583   -0.95325
      H1    -9.00962    1.87964   -0.63932
       H   -12.84406    3.73617    3.03387
       O   -13.68808    4.04102    2.65176
      H1   -13.38359    4.68787    2.02880
       H   -13.00137    3.90849   -1.47242
       O   -12.87819    3.52060   -0.58262
      H1   -13.76232    3.30386   -0.33916
       H   -11.63771    0.31899   -1.48844
       O   -12.49625    0.69168   -1.14088
      H1   -12.33787    1.65790   -1.12248
       H   -10.19628   12.62800    2.36599
       O   -10.69231   13.27668    2.91208
      H1    -9.97737   13.82524    3.19689
       H   -12.57882    7.36197   -5.69249
       O   -12.11916    6.56922   -6.09083
      H1   -12.70475    6.37965   -6.87167
       H   -14.96860   12.18314   -5.59828
       O   -15.03382   12.93539   -4.97244
      H1   -15.98122   13.14615   -4.96248
       H    -9.90865    9.37729   -7.13947
       O    -9.38481    9.85382   -6.43600
      H1    -9.14525    9.11756   -5.88699
       H   -14.80338    6.10149   -7.93511
       O   -14.97414    7.04432   -7.65183
      H1   -15.79532    7.23413   -8.05261
       H    -8.03498    7.61457   -7.40109
       O    -7.36589    7.89579   -8.02141
      H1    -7.26252    7.04061   -8.51060
       H    -6.53369    6.14351   -1.20642
       O    -5.55756    6.10925   -1.57023
      H1    -5.24387    6.79583   -0.91841
       H   -11.83332   11.68893   -1.68285
       O   -11.63682   11.54527   -0.74643
      H1   -12.46611   11.15220   -0.50807
       H    -8.05176   10.97367    1.21747
       O    -7.10824   11.18039    0.93796
      H1    -6.60622   10.99662    1.78344
       H   -10.51480   10.49829    1.69558
       O    -9.80312   10.97736    1.19108
      H1   -10.37785   11.47341    0.59666
       H    -6.20897    9.76815   -1.93899
       O    -7.09363    9.75371   -1.54363
      H1    -6.93118   10.17286   -0.67150
       H   -10.57379    6.00060    3.00107
       O    -9.98835    5.22151    3.04869
      H1    -9.75733    4.82745    2.15242
       H   -11.06786   10.54197   -6.50921
       O   -11.92432   10.75386   -6.06342
      H1   -12.57166   10.55351   -6.78337
       H   -14.29824   10.29582   -1.61972
       O   -14.27999   10.25853   -0.65880
      H1   -13.74292    9.49866   -0.52293
       H   -16.34465    5.09928   -5.53294
       O   -16.64955    5.93346   -5.13068
      H1   -15.80420    6.37012   -5.04733
       H    -8.95277   14.70270   -7.07312
       O    -8.92796   13.71617   -6.73320
      H1    -9.73887   13.68697   -6.14968
       H   -16.69596    9.61125   -4.44133
       O   -15.87987   10.03079   -4.66617
      H1   -16.01694   10.91666   -4.27045
       H   -16.89008   11.75308   -1.92142
       O   -17.43117   11.39221   -2.62534
      H1   -17.45448   10.48236   -2.34196
       H    -7.12129   12.02667   -3.43295
       O    -6.27753   12.50739   -3.40243
      H1    -5.65003   11.76890   -3.48071
       H   -15.18893    3.52589    1.44077
       O   -15.77263    3.33457    0.69180
      H1   -16.55005    3.80308    0.90711
       H   -11.20052    5.27864   -4.98319
       O   -11.02273    4.56129   -4.40285
      H1   -10.08285    4.62422   -4.34688
       H   -13.12664   11.39396    1.95203
       O   -12.58136   10.63753    2.08998
      H1   -13.01973    9.95828    1.56045
       H   -15.11462    2.86601   -6.04555
       O   -15.97423    3.24213   -5.74542
      H1   -15.84998    3.16999   -4.78948
       H    -8.29228   14.42904   -1.56356
       O    -9.00379   14.58510   -2.21351
      H1    -9.19349   13.70696   -2.57539
       H   -16.82307    6.46000    1.09359
       O   -16.09205    6.72779    1.64493
      H1   -15.43861    6.12197    1.25617
       H   -10.15670    6.97433   -6.18982
       O    -9.26097    7.24867   -6.10769
      H1    -9.03158    7.08115   -5.14200
       H    -9.14428    5.26861   -0.10611
       O    -9.67612    4.66975    0.44996
      H1    -9.78402    3.90125   -0.15159
       H    -4.09845    9.81292   -3.34538
       O    -5.00283   10.00070   -3.49503
      H1    -4.90674    9.72826   -4.42998
       H    -7.87254    3.72794   -2.13516
       O    -8.74397    3.96886   -2.41431
      H1    -8.65726    4.85119   -2.81929
       H    -9.14516   12.21648   -4.98143
       O    -9.06573   12.28773   -4.03902
      H1    -9.56762   11.55125   -3.64285
       H   -13.76299   15.56554   -0.84959
       O   -13.91420   14.80807   -1.45309
      H1   -13.38513   15.17392   -2.21910
       H   -10.05199    3.39036   -6.48225
       O   -10.37326    2.52152   -6.86973
      H1   -11.31841    2.73406   -6.72004
       H   -16.64124    3.16920   -2.87932
       O   -16.00856    3.82215   -3.07980
      H1   -16.43825    4.63213   -3.21027
       H   -15.69344    8.46627    1.81493
       O   -15.39923    9.32031    2.14470
      H1   -16.07918    9.94159    1.74299
       H   -11.09874    9.38322   -9.23708
       O   -11.10352    8.55042   -8.75343
      H1   -10.47978    7.92277   -9.06784
       H   -15.88832    9.36990   -0.74154
       O   -16.84091    9.15197   -0.87076
      H1   -16.83186    8.17435   -0.75427
       H   -11.50533   13.72071   -0.68643
       O   -10.81609   14.27695   -0.38280
      H1   -10.29139   14.32132   -1.19627
       H    -7.93633    7.12033    0.89719
       O    -7.65746    6.98571    0.00506
      H1    -7.54131    7.90053   -0.34929
       H   -11.42019    8.26998    2.67965
       O   -11.62324    7.33262    2.71989
      H1   -12.14275    7.17128    3.54359
       H   -12.84324    7.42691   -0.39271
       O   -12.40722    8.32082   -0.43047
      H1   -11.79689    8.11571   -1.13995
       H   -13.55787   12.13472   -3.99531
       O   -12.86049   11.61147   -3.53121
      H1   -12.66093   10.98141   -4.17190
       H   -12.39208   13.49780   -6.88805
       O   -12.94666   13.72540   -7.66282
      H1   -12.29455   13.33473   -8.27668
       H   -12.65269    9.43506   -5.17385
       O   -13.00755    8.69915   -4.60687
      H1   -13.93292    8.90769   -4.58219
       H   -13.24939    9.90709   -8.65685
       O   -13.78505   10.05176   -7.87844
      H1   -14.24523    9.16492   -7.87154
       H   -12.55924    6.58234    1.48136
       O   -13.06358    6.03583    0.80601
      H1   -12.31076    5.48134    0.54029
       H   -12.59015    4.48415   -3.63689
       O   -13.31043    4.77450   -2.99864
      H1   -14.01398    4.18731   -3.29384
       H    -9.53437    7.08984   -2.89469
       O    -8.63898    6.85154   -3.12717
      H1    -8.16874    7.42247   -2.46884
       H    -7.64875   10.42188   -7.10687
       O    -7.09954   10.90757   -7.67186
      H1    -7.81385   11.36495   -8.17356
       H   -10.08602   10.58494   -1.43870
       O    -9.73719   10.28630   -2.30500
      H1    -8.79561   10.27763   -1.97754
       H   -18.40496    5.62286   -0.38596
       O   -18.12073    6.48607   -0.67763
      H1   -18.91728    7.04728   -0.65494
       H    -7.71480    3.96405   -5.29779
       O    -8.50263    4.37423   -5.68848
      H1    -8.13212    5.20238   -6.09284
       H   -11.90420   14.14344   -4.65577
       O   -11.52554   13.57211   -5.34828
      H1   -11.77993   12.69636   -5.08063

