180
frame 3 | Written by MDAnalysis XYZWriter (release 2.4.3)
       H     3.83206  -11.43756   17.46538
       O     3.95497  -10.44311   17.33207
      H1     3.76741  -10.16773   18.30945
       H    -0.47483  -12.89303   17.83235
       O     0.45082  -12.53892   17.75877
      H1     0.38834  -11.68216   17.31258
       H     4.38807  -10.55305   11.52631
       O     3.59387  -10.06150   11.58942
      H1     2.93161  -10.67338   11.93595
       H    -1.20650   -8.36511   16.06140
       O    -1.37680   -7.43105   16.35605
      H1    -1.20123   -6.91483   15.55143
       H     1.13727   -9.98016    9.75968
       O     0.67777   -9.24101   10.18705
      H1     0.02009   -9.69293   10.67293
       H     2.64733   -0.26055   14.78946
       O     3.38913    0.39641   14.69405
      H1     2.95103    1.23751   15.05862
       H    -1.87187    0.29508   16.75387
       O    -1.18390   -0.32997   16.49768
      H1    -0.48007   -0.20347   17.22524
       H     9.02743   -2.87551   15.97514
       O     8.33494   -3.48914   16.28286
      H1     8.88295   -4.31392   16.61685
       H     7.37804   -8.38970   19.35185
       O     6.45412   -8.41342   19.04200
      H1     6.57725   -8.32716   18.08617
       H     2.39560   -1.51298   17.92903
       O     1.79384   -2.18866   17.70487
      H1     2.01368   -2.90387   18.32399
       H    -2.07929   -4.61553   11.70542
       O    -1.59049   -3.96580   11.14473
      H1    -1.22251   -4.61094   10.46649
       H    -3.68788   -3.61971   12.50765
       O    -4.07583   -2.78745   12.18575
      H1    -3.72036   -2.68069   11.24224
       H    -3.44403   -8.39419   16.44131
       O    -3.99314   -9.15975   16.70984
      H1    -4.89568   -8.84642   16.40979
       H     5.04522   -0.22057   12.56081
       O     5.83868   -0.75753   12.70984
      H1     5.61116   -1.50790   13.31055
       H     5.69466   -4.55871   17.65640
       O     5.19775   -5.09817   17.07324
      H1     4.96586   -4.50206   16.34873
       H     0.37625   -7.03601   17.07377
       O     1.21004   -7.20333   17.40623
      H1     1.57017   -7.90195   16.77375
       H     6.14566   -7.69996    9.04489
       O     5.97094   -8.49125    9.58945
      H1     5.21687   -8.19117   10.11769
       H     4.12648    0.74500   18.01376
       O     3.60573    0.04087   18.40412
      H1     4.18990   -0.33992   19.10463
       H     6.96578   -6.00077   16.41727
       O     7.55006   -6.72811   16.24849
      H1     7.04382   -7.43385   15.86383
       H     9.10484   -6.18595   17.13268
       O     9.75612   -5.57397   17.49441
      H1     9.25386   -5.47654   18.37764
       H     7.34553   -3.20720   17.95638
       O     7.04217   -3.30355   18.87642
      H1     7.66849   -3.93761   19.33003
       H    -2.45358   -1.63835   17.31456
       O    -3.01080   -2.46267   17.28979
      H1    -2.38418   -3.11206   16.88984
       H     8.47103   -8.40418   11.96994
       O     7.60121   -7.89789   12.03702
      H1     7.26577   -8.17564   11.21030
       H     3.58245  -13.63011   18.36626
       O     3.21227  -13.23787   17.55708
      H1     2.38442  -12.82908   17.82503
       H     0.74092   -3.21793   13.43905
       O    -0.23371   -3.40158   13.42350
      H1    -0.50038   -3.24051   12.52577
       H     2.24529  -12.08532   14.12580
       O     2.95841  -12.10001   14.75725
      H1     2.95141  -12.94635   15.13264
       H     1.36709   -6.99946   12.45402
       O     2.07810   -7.06903   11.83683
      H1     2.00917   -7.85193   11.29814
       H     2.79483   -9.87703   15.44693
       O     2.26992   -9.08385   15.34736
      H1     2.78742   -8.44903   14.77635
       H     5.15548   -8.78193   15.26617
       O     5.80600   -9.13609   15.88241
      H1     5.23227   -9.62326   16.50229
       H     3.65238   -7.18646   13.50952
       O     4.30112   -7.84254   13.89543
      H1     4.12671   -8.60231   13.30052
       H     0.83251   -9.40013   19.64023
       O     0.67949   -8.46285   19.77196
      H1     0.75071   -8.08338   18.88415
       H     1.66642    0.30728   18.59872
       O     0.65996    0.39563   18.60319
      H1     0.52801    1.32557   18.81156
       H     2.74779   -2.48143   12.95964
       O     2.14146   -1.79203   13.22672
      H1     1.89850   -1.44056   12.40463
       H    -0.05576   -1.08179   13.71955
       O    -0.36911   -0.18144   13.95195
      H1    -0.60188   -0.28996   14.93928
       H    -0.78565   -4.47352   19.08130
       O    -0.49607   -5.35419   19.44485
      H1    -1.08212   -5.92672   18.95200
       H    -2.10332   -3.46037   19.93387
       O    -1.71325   -2.61713   19.66495
      H1    -2.18224   -2.57897   18.83501
       H     2.26484  -12.66401   12.38627
       O     1.60041  -12.01419   12.32456
      H1     1.00565  -12.52184   11.68751
       H    -3.06651   -9.61244   19.43760
       O    -3.70157  -10.36908   19.36637
      H1    -3.84815  -10.32910   18.38817
       H     0.64940   -2.67567    9.42309
       O     1.58701   -2.76268    9.44602
      H1     1.93255   -2.57160    8.56655
       H     0.20414   -6.26051    9.49305
       O    -0.71352   -6.02748    9.54197
      H1    -1.02096   -6.26175    8.62462
       H    -0.69547   -3.47702   15.22125
       O    -0.71188   -3.57962   16.19024
      H1     0.20002   -3.34786   16.40251
       H     3.34030    0.73479   13.00020
       O     3.52275    1.09307   12.11058
      H1     2.82490    0.54480   11.64905
       H     0.36834   -5.89960   14.54228
       O    -0.48010   -5.94171   14.06836
      H1    -0.46185   -5.03962   13.71570
       H     8.00371   -5.77031   14.50457
       O     8.11139   -5.63054   13.55928
      H1     7.92787   -6.49259   13.18514
       H    -2.28172  -12.22163   14.99077
       O    -1.54960  -11.83521   14.43960
      H1    -0.76323  -12.32827   14.55374
       H     1.82169   -5.89783   16.14334
       O     2.12136   -5.63746   15.22487
      H1     2.61212   -4.80021   15.37424
       H    -2.73344   -8.22776   12.84897
       O    -3.43258   -8.57142   13.44635
      H1    -3.04565   -8.41462   14.35020
       H    -0.85778  -10.64382   15.59588
       O    -0.34870  -10.07239   16.14546
      H1     0.42267  -10.00646   15.60520
       H    -3.42641   -5.66197   19.35096
       O    -3.75689   -6.12945   18.50914
      H1    -3.23283   -6.98216   18.56471
       H    -2.66011   -0.54964   13.88310
       O    -3.59882   -0.24317   13.83189
      H1    -3.85008   -0.97543   13.26617
       H     7.01157   -3.56200   14.56825
       O     6.24922   -3.36043   14.03471
      H1     6.47784   -3.79433   13.19573
       H    -3.27731   -5.30572   13.95232
       O    -3.23830   -5.40910   12.97703
      H1    -4.23721   -5.36165   12.72316
       H     4.60179  -11.85495   15.06658
       O     5.60011  -11.87542   14.91660
      H1     5.96766  -11.16584   15.45163
       H     2.27648   -5.68380   18.00581
       O     2.82623   -4.94005   18.27067
      H1     3.66923   -4.98096   17.79688
       H     3.46562   -2.65235   15.81211
       O     3.74396   -3.50628   15.42343
      H1     4.50775   -3.22937   14.91009
       H     4.19089   -3.91884    9.57505
       O     4.84284   -3.51284    9.06816
      H1     4.90923   -2.65225    9.43933
       H     2.55712   -4.95554   11.66034
       O     2.78020   -4.05118   11.51899
      H1     2.19768   -3.76631   10.81699
       H     6.43283   -5.98307   11.70415
       O     5.46994   -6.10507   11.89657
      H1     5.57285   -6.66116   12.64205
       H    -1.37343   -7.04873   10.77688
       O    -1.97907   -7.33551   11.50465
      H1    -2.34711   -6.56027   11.95575
       H    -4.11685   -5.67963   16.65133
       O    -4.12160   -5.22580   15.74162
      H1    -5.01246   -4.85697   15.63192

