180
frame 5 | Written by MDAnalysis XYZWriter (release 2.4.3)
       H    -6.45974    2.09008    9.45901
       O    -6.78235    1.73772   10.29660
      H1    -7.70823    1.96627   10.36087
       H   -17.45972   -1.26948    5.86828
       O   -16.62464   -1.08962    6.31259
      H1   -16.90907   -1.05855    7.23732
       H   -13.80606    2.41663    1.99184
       O   -14.41270    2.13162    2.69882
      H1   -14.26570    2.85905    3.36191
       H   -10.43481   -1.76505    8.16057
       O   -10.38349   -1.94646    7.20165
      H1   -10.09936   -2.92467    7.25740
       H   -12.51530    2.57981    5.12004
       O   -12.65613    2.10838    5.95775
      H1   -12.79121    1.18731    5.60652
       H   -10.15920   -1.14946   10.66441
       O   -10.69008   -1.80083   10.17384
      H1   -11.54930   -1.38737   10.05192
       H    -9.93489    4.95207    9.67220
       O    -9.46607    5.87062    9.80532
      H1    -9.00719    5.71575   10.62742
       H   -11.17473    3.10497    9.07242
       O   -11.28841    3.94007    8.61444
      H1   -11.42004    3.66473    7.65956
       H    -9.01608    3.03034    6.59241
       O    -8.51702    2.35503    7.09150
      H1    -9.22075    1.84192    7.48583
       H    -6.32404    2.98373    6.89158
       O    -5.39222    3.01988    7.08581
      H1    -5.13175    3.97151    7.13772
       H   -11.27824    9.26963    7.76781
       O   -11.13548    8.49614    8.35864
      H1   -10.65868    7.84799    7.77858
       H   -11.19859    0.18371    8.21336
       O   -10.90013    1.03725    7.87960
      H1   -11.49779    1.26519    7.08796
       H   -11.72352   -2.04917    3.61150
       O   -10.96657   -2.46634    4.01572
      H1   -11.14521   -3.40631    3.79174
       H    -7.67664    4.57127    5.24942
       O    -7.13218    4.83638    6.01526
      H1    -6.26524    5.13964    5.67234
       H   -11.32045    0.85112   13.14587
       O   -11.45201   -0.07643   13.38866
      H1   -10.62357   -0.50700   13.11189
       H   -10.92863    7.04307   11.05086
       O   -11.90715    7.29503   11.26549
      H1   -12.29638    6.89784   10.42367
       H   -12.23648    1.42961    0.53681
       O   -12.40920    0.55585    0.93515
      H1   -11.83821   -0.04831    0.42856
       H   -10.84492    6.11821    3.11928
       O   -10.17477    5.46583    3.16784
      H1   -10.51855    4.85905    2.49044
       H    -6.88864    1.43713    4.08864
       O    -7.80801    1.60826    4.03318
      H1    -8.03712    0.67642    4.13075
       H    -9.15634   -0.92409    3.64648
       O    -8.71600   -0.73655    2.81868
      H1    -8.69518   -1.62331    2.44969
       H   -12.93136   -1.05498    4.95190
       O   -12.60521   -0.75592    5.84274
      H1   -11.90702   -1.40369    5.85765
       H    -9.10989    2.66275   11.74085
       O    -9.69232    2.23348   11.08953
      H1   -10.58614    2.38057   11.46687
       H   -12.43346    5.42229    8.63390
       O   -13.25255    5.83244    8.48913
      H1   -13.27957    6.04492    7.52498
       H   -15.00408   -0.62671    0.80626
       O   -15.71846   -1.13059    1.14688
      H1   -15.59401   -0.81617    2.09301
       H   -16.22248    3.20293   10.76149
       O   -16.81027    3.13706   11.54247
      H1   -16.34896    3.80996   12.14818
       H   -15.18413    2.91910    6.16591
       O   -15.84593    2.22932    6.15318
      H1   -16.51375    2.62668    6.71110
       H    -4.78565   -1.10590    7.32239
       O    -5.61892   -0.65121    7.17583
      H1    -5.39560    0.26158    7.13602
       H    -8.81259   -1.04274    9.55272
       O    -8.11460   -0.92010    8.93048
      H1    -7.58172   -0.21570    9.34024
       H    -7.48160    5.85883    7.41344
       O    -7.58465    6.61717    8.03938
      H1    -8.28323    6.39938    8.68542
       H   -10.31998    0.83536    3.07047
       O   -10.70878    1.63746    3.47635
      H1   -10.03664    1.84058    4.17684
       H    -6.35725   -0.14651   12.78526
       O    -6.96610   -0.30629   12.06183
      H1    -6.70528    0.42582   11.44159
       H   -17.02629    6.33008    8.27245
       O   -16.68696    5.70964    8.96687
      H1   -15.73916    5.86851    8.76769
       H   -10.28468    3.27272    1.07726
       O   -11.11454    3.39533    1.51686
      H1   -11.08476    2.79314    2.32428
       H   -13.19088   -4.09882    6.54404
       O   -12.51339   -4.71033    6.74814
      H1   -12.68479   -5.36645    6.06413
       H   -15.33530    4.13982    4.09473
       O   -14.48717    4.03285    4.54445
      H1   -13.87111    4.66142    4.09475
       H   -14.17783   -1.55793    3.38728
       O   -13.21014   -1.38449    3.18859
      H1   -13.16975   -0.68832    2.49710
       H    -8.83550   -4.70518    6.48586
       O    -9.18152   -4.41691    7.36967
      H1    -8.31416   -4.21655    7.70858
       H    -7.21295   -2.55950    8.55030
       O    -6.89844   -3.52698    8.58296
      H1    -7.01006   -3.78933    9.52613
       H   -10.00019    4.42794    4.75036
       O    -9.99130    4.15025    5.64962
      H1    -9.96275    4.98771    6.13967
       H   -15.53082    1.25261    8.20443
       O   -15.22996    0.74867    8.98891
      H1   -14.38145    0.37675    8.73284
       H   -11.41237   -3.25236   11.17037
       O   -11.88439   -3.78697   11.81180
      H1   -11.09042   -3.87500   12.43307
       H   -13.58209   -1.20706   10.11769
       O   -13.28639   -1.29141    9.20032
      H1   -13.83512   -2.03133    8.90703
       H    -9.38281   -1.84418   14.01111
       O    -9.26295   -1.40289   13.15142
      H1    -8.49618   -0.77353   13.24627
       H   -11.10173    7.88012    4.23317
       O   -11.86429    7.32737    3.94138
      H1   -12.11284    6.95065    4.78930
       H   -13.99786    4.03145    9.11128
       O   -14.60495    3.43128    9.57830
      H1   -14.45592    2.49744    9.17496
       H   -14.43804    1.09658   12.39141
       O   -14.54634    1.95179   12.78169
      H1   -15.26372    2.36457   12.23859
       H   -12.95450    2.38075   12.49614
       O   -11.99976    2.61793   12.38822
      H1   -11.95494    3.37885   13.01937
       H    -7.12845   -1.57966    4.43179
       O    -6.17454   -1.85516    4.50618
      H1    -5.99951   -1.56376    5.41574
       H   -14.26865    6.80796    6.11486
       O   -13.54402    6.22218    5.88751
      H1   -14.00457    5.38618    5.64822
       H   -14.94390   -3.27398    4.52923
       O   -15.24205   -3.43735    3.62280
      H1   -14.67681   -4.18655    3.37877
       H    -9.60390    7.27123    6.01115
       O    -9.86794    6.59604    6.62083
      H1    -8.99887    6.63375    7.15364
       H    -6.24223   -0.03667    1.14250
       O    -6.77858    0.81398    1.18174
      H1    -7.39237    0.65199    1.89913
       H   -15.01185   -2.28562    6.44026
       O   -14.23845   -2.77290    6.20559
      H1   -13.57229   -2.01717    6.25920
       H   -17.65365    4.09491    8.40749
       O   -17.77702    3.23187    7.96949
      H1   -18.79353    3.15436    7.95763
       H    -9.14979    0.40383    6.08397
       O    -8.95552   -0.42074    5.64322
      H1    -9.36652   -1.06506    6.20095
       H   -15.24933   -3.95219    9.04927
       O   -16.09484   -3.69019    8.61221
      H1   -16.64705   -3.61263    9.41561
       H   -12.92568   -0.51767   12.48908
       O   -13.77790   -0.60203   11.99392
      H1   -14.07840   -1.50201   12.16081
       H    -4.90099    2.18426    5.05975
       O    -4.99988    1.84636    4.12012
      H1    -4.66630    2.59638    3.59413
       H   -17.08221    3.12708    4.71029
       O   -17.23195    3.82722    4.02116
      H1   -17.91747    4.36197    4.37830
       H   -15.16704    0.70805    3.98566
       O   -15.61686   -0.22081    3.91112
      H1   -15.84931   -0.31466    4.82920

