180
frame 9 | Written by MDAnalysis XYZWriter (release 2.4.3)
       H     7.91966  -12.29167    5.95422
       O     8.32490  -13.06947    6.29566
      H1     7.99083  -13.18713    7.21499
       H    -2.72760   -8.42761   -0.43350
       O    -3.25703   -8.99144    0.24013
      H1    -3.04642   -8.50703    1.07551
       H     6.05434   -8.06757    2.72932
       O     5.96867   -7.81096    1.83227
      H1     5.02509   -7.95766    1.79017
       H     1.07137   -8.72225    0.60844
       O     1.33799   -8.41049   -0.28275
      H1     2.30280   -8.39198   -0.27622
       H    -0.90558   -8.14478   -2.89625
       O    -0.28291   -8.25121   -3.70498
      H1    -0.81597   -8.46678   -4.43561
       H     1.83933   -7.94739   -3.87066
       O     2.78650   -8.17841   -3.76164
      H1     3.22649   -7.87252   -4.52143
       H    -0.74004  -17.18577    3.09380
       O     0.19679  -17.22912    3.23583
      H1     0.61608  -16.47814    2.85087
       H     1.11953  -13.62263    8.03711
       O     1.59450  -13.10869    8.70985
      H1     2.04725  -12.25178    8.30631
       H     3.94395   -7.71477    5.38519
       O     3.47041   -7.04820    5.90538
      H1     3.95843   -6.20889    5.61199
       H     5.18919   -7.22585    6.94370
       O     5.96092   -7.36708    7.45159
      H1     6.58704   -7.83893    6.91912
       H     7.21849  -14.16430    5.38769
       O     6.97207  -14.90087    4.80051
      H1     7.74555  -14.98533    4.21830
       H    -0.58018   -6.05466    5.54155
       O    -0.30024   -6.73087    6.14266
      H1    -0.92322   -7.45683    6.08059
       H     0.78602  -14.88307    1.61669
       O     1.51726  -14.95894    2.29569
      H1     2.35351  -15.15717    1.78462
       H     2.68909   -6.53603    3.14216
       O     1.99235   -7.25813    3.12697
      H1     2.21650   -7.73395    3.96273
       H     0.17907   -4.82872    1.21935
       O     0.16377   -4.21382    0.49282
      H1     1.01454   -4.02609    0.09560
       H     6.81511   -6.03944   -0.02134
       O     7.41546   -5.55393   -0.60592
      H1     7.48481   -4.63592   -0.21036
       H     4.56141  -11.06167    1.88666
       O     5.41735  -10.71883    1.51241
      H1     5.23643   -9.82652    1.23804
       H     2.60975  -11.80163    3.58136
       O     2.99086  -11.06865    3.01817
      H1     2.23670  -10.64543    2.63554
       H    -0.52237  -12.83563   -3.50403
       O     0.27716  -12.38764   -3.81067
      H1     0.46882  -11.69382   -3.14465
       H     8.65363  -13.48869    2.60963
       O     8.87516  -14.36024    2.22006
      H1     9.86180  -14.42457    2.19608
       H     3.74047   -4.99875   -1.43637
       O     3.39014   -5.89674   -1.33592
      H1     3.30046   -6.32931   -2.20068
       H     5.51249   -3.78357    5.08424
       O     5.39884   -4.68850    4.86733
      H1     4.57122   -4.61025    4.32364
       H     3.90072   -4.39860    2.32603
       O     3.43812   -4.96805    2.94469
      H1     2.52344   -4.61136    2.82731
       H     1.02593  -15.30044   -2.30883
       O     1.19672  -14.37783   -2.16296
      H1     0.87168  -13.89712   -2.94770
       H    -4.44546  -10.70871    4.13934
       O    -4.18045   -9.92350    3.55936
      H1    -3.29907  -10.15609    3.25331
       H     8.87792   -9.74708   -0.03651
       O     9.02875  -10.67199    0.29445
      H1     8.58431  -11.10229   -0.43463
       H    -0.93126  -13.27106    4.90686
       O    -0.37650  -12.63126    5.34142
      H1     0.55213  -12.72278    5.07969
       H     3.71204  -16.56454    0.09723
       O     3.78345  -15.62904    0.37634
      H1     4.08195  -15.27172   -0.47449
       H     7.15257  -12.88390   -0.70571
       O     6.29521  -12.59925   -0.45699
      H1     6.35095  -12.22461    0.35674
       H     7.77745  -10.30879    5.37666
       O     7.18096  -10.98155    5.02885
      H1     7.51087  -11.17155    4.12498
       H     8.58902  -11.11007    1.95888
       O     8.54110  -11.62921    2.81062
      H1     9.51178  -11.85445    2.93250
       H    -4.08054  -12.74175    1.43523
       O    -3.78724  -13.27850    2.20450
      H1    -4.59352  -13.50036    2.71320
       H    -1.61674   -6.59534   -1.37577
       O    -1.50577   -7.57128   -1.41518
      H1    -0.76409   -7.72781   -0.91492
       H    -0.65695  -10.71117    7.99015
       O    -1.24747  -11.33065    7.59383
      H1    -0.71986  -11.70327    6.88037
       H    -2.25487   -8.97776    5.19120
       O    -2.05953   -8.89952    6.14905
      H1    -1.81593   -9.85804    6.41173
       H     5.66125  -11.42560    6.43246
       O     4.90543  -11.30909    7.03839
      H1     5.19627  -11.52115    7.90951
       H     6.96645   -5.72527    4.48124
       O     7.82147   -6.20748    4.62953
      H1     8.23269   -6.35500    3.76349
       H     0.34548   -9.61338   -2.71060
       O     0.47196  -10.26651   -1.98194
      H1     0.94781   -9.81887   -1.30194
       H    -1.08739  -14.80664    0.36875
       O    -1.37668  -15.73589    0.50587
      H1    -0.98467  -16.34114   -0.12196
       H    -2.55368  -10.31956    1.45943
       O    -1.97257  -10.96006    1.85007
      H1    -2.57075  -11.58977    2.28085
       H     2.01483   -7.71953    7.96226
       O     2.29709   -8.05960    8.80480
      H1     1.56193   -8.25591    9.37511
       H    -0.03641   -9.17823    9.72456
       O    -0.51657   -8.90970    8.92391
      H1    -1.10809   -8.24819    9.29842
       H    -0.60039  -14.78247    7.93006
       O     0.02076  -14.78180    7.21814
      H1    -0.17634  -13.95436    6.76696
       H     3.26926  -13.98780   -1.55146
       O     4.05385  -13.79696   -2.04972
      H1     4.63627  -13.25280   -1.45968
       H    -5.33060  -11.77034    0.47035
       O    -4.39493  -11.84348    0.13525
      H1    -4.36468  -12.55551   -0.48319
       H     0.54480   -8.52186    5.55628
       O     0.85379   -9.21401    4.97464
      H1     1.30112   -9.80140    5.58598
       H    -1.05670  -12.30266    1.13408
       O    -0.74374  -13.08452    0.59710
      H1    -0.44340  -12.62195   -0.20435
       H     3.26722  -10.70059    7.35305
       O     2.38080  -10.65075    7.71965
      H1     2.23740   -9.80124    8.22627
       H     5.33027  -15.72712    3.69642
       O     4.66821  -16.41555    3.43656
      H1     4.25492  -16.12066    2.60700
       H     4.47781   -9.66038    3.68940
       O     4.90116   -9.01589    4.26467
      H1     5.69484   -9.46707    4.52424
       H    -1.53382   -7.22444    2.95430
       O    -2.11074   -7.97779    3.20988
      H1    -2.96337   -7.51092    3.25139
       H     4.71737   -8.86922   -0.98811
       O     4.08306   -8.43499   -0.38233
      H1     4.06813   -7.49746   -0.64833
       H     0.66276   -9.19773    2.92813
       O     0.72776   -9.79372    2.17524
      H1    -0.14407  -10.23213    2.20770
       H     2.98681  -12.61324    5.57417
       O     2.35296  -12.76632    4.90286
      H1     2.52750  -13.65682    4.52671
       H    -0.04545  -16.46215    6.46479
       O    -0.04754  -17.27964    5.91710
      H1     0.08114  -17.04984    4.94329
       H    -2.93462  -13.80363    3.45096
       O    -2.62332  -14.19049    4.31001
      H1    -3.10231  -13.79121    5.08297
       H     3.43506   -9.82110   -3.70668
       O     3.58136  -10.77061   -3.51756
      H1     2.84816  -10.84573   -2.90771
       H    -0.73622   -5.49259    3.19585
       O    -0.28241   -6.02332    2.47316
      H1     0.55561   -6.33680    2.83945
       H    -2.60777  -10.93677   -0.68347
       O    -2.10173  -11.25223   -1.42951
      H1    -1.28880  -10.73598   -1.32831
       H     5.95583  -10.56270   -1.33007
       O     5.75129   -9.85702   -1.99735
      H1     5.22586  -10.41420   -2.63371

