180
frame 0 | Written by MDAnalysis XYZWriter (release 2.4.3)
       H    13.51434  -16.23820  -18.14380
       O    14.49243  -16.05042  -18.31111
      H1    14.93705  -16.87183  -18.10214
       H     7.43718  -16.78683  -10.63452
       O     7.87115  -17.44573  -11.16166
      H1     8.79648  -17.32221  -10.86479
       H     8.04777  -19.97717  -13.38668
       O     7.49088  -20.02272  -12.65285
      H1     7.60930  -19.15719  -12.24367
       H    14.92702  -19.31739  -17.28978
       O    15.52459  -18.53045  -17.35551
      H1    15.40759  -18.05898  -16.51416
       H     1.87424  -15.11866  -10.26591
       O     0.93040  -15.02547   -9.99938
      H1     1.07675  -14.73924   -9.01671
       H     6.67395  -17.85099  -14.85826
       O     5.75458  -17.91111  -15.05202
      H1     5.47459  -17.08561  -14.62265
       H     5.57889  -17.19377   -8.87289
       O     5.43619  -16.94175   -9.79947
      H1     4.98542  -16.03127   -9.73184
       H     6.43652  -19.57856   -8.42554
       O     7.13072  -18.95980   -8.34235
      H1     7.63602  -19.25137   -9.16760
       H    -1.80858  -16.58882  -13.70782
       O    -1.28098  -16.09601  -14.43553
      H1    -0.45603  -16.05122  -13.97223
       H     4.50571  -15.02879  -14.23322
       O     4.71564  -15.73445  -13.61107
      H1     5.38272  -15.25416  -13.09832
       H    13.67464  -18.85269   -8.06275
       O    14.67097  -18.97069   -8.05601
      H1    14.84159  -19.62012   -7.33815
       H    16.67160  -16.35801  -15.25706
       O    15.90251  -16.95864  -15.03462
      H1    16.15966  -17.74078  -14.54725
       H     2.04915  -12.95138  -12.49683
       O     3.06358  -12.85889  -12.38315
      H1     3.29813  -13.07042  -13.32894
       H     1.06303  -17.80221  -18.47148
       O     0.21941  -18.16145  -18.78090
      H1    -0.29534  -17.98137  -17.95615
       H     0.87029  -14.70761  -16.96120
       O     0.29527  -14.27432  -16.33357
      H1    -0.44361  -14.19200  -16.93092
       H     9.50566  -15.84651   -5.01057
       O    10.43083  -16.01555   -5.25274
      H1    10.96539  -15.21455   -5.05122
       H    12.48409  -13.42821  -14.81473
       O    12.98459  -14.14392  -15.22496
      H1    13.63531  -14.24803  -14.44711
       H     9.31728  -16.38107   -7.78449
       O    10.25564  -16.75160   -7.83981
      H1    10.55027  -16.71075   -6.88267
       H     9.31016  -17.03471  -13.52551
       O     8.42207  -16.88283  -13.97604
      H1     7.83365  -16.85721  -13.19252
       H     3.39584  -14.44500  -11.58493
       O     3.44728  -15.21076  -10.97435
      H1     3.45959  -15.97568  -11.54381
       H    17.20688  -19.64290  -14.59409
       O    17.09370  -19.10625  -13.77704
      H1    16.80389  -19.73195  -13.10543
       H     7.89025  -16.41252   -3.86365
       O     7.72131  -15.83803   -4.65379
      H1     7.25609  -16.50745   -5.29238
       H    11.87922  -15.92798  -11.23615
       O    12.50009  -15.34765  -11.73983
      H1    13.23719  -15.25906  -11.11053
       H     1.52197  -17.21758  -14.03735
       O     1.05317  -16.82397  -13.34499
      H1     1.67663  -16.20760  -12.93975
       H    12.77803  -16.16060  -13.80244
       O    12.99648  -16.80560  -14.52214
      H1    13.87578  -16.50161  -14.78262
       H     5.49687  -14.58587  -11.51646
       O     6.45543  -14.70346  -11.79378
      H1     6.90814  -13.87483  -11.70364
       H     7.10445  -19.02736  -17.98624
       O     7.65417  -18.62160  -17.27806
      H1     8.47510  -18.31692  -17.72601
       H    15.62034  -14.03796  -14.12785
       O    15.34599  -14.68439  -13.47047
      H1    15.66958  -15.46565  -13.92039
       H     8.19525  -14.26280   -7.20247
       O     8.08424  -15.10560   -7.58018
      H1     7.36875  -15.49551   -7.07489
       H    10.93467  -17.97607  -10.38427
       O    10.50233  -17.07256  -10.46705
      H1    10.43197  -16.71242   -9.59975
       H    -0.18365  -17.69837   -9.77246
       O    -0.70434  -17.33807   -9.04868
      H1    -0.13330  -16.61416   -8.83538
       H     5.30364  -12.44401  -18.86245
       O     4.86411  -11.65032  -19.06549
      H1     5.38987  -10.95697  -18.56971
       H     2.44562  -16.27769  -16.88856
       O     2.24339  -15.72590  -17.71636
      H1     3.09456  -15.29557  -17.91945
       H    15.11074  -15.85848  -10.73874
       O    15.08678  -14.87947  -10.71199
      H1    15.02927  -14.61049  -11.69791
       H     4.37480  -15.63044   -5.37511
       O     3.62929  -16.12887   -5.85920
      H1     3.04966  -15.41598   -6.15677
       H     3.48415  -17.50784  -14.67812
       O     2.87649  -17.11069  -15.32895
      H1     2.66130  -17.89337  -15.90859
       H    10.48365  -12.07939  -15.81441
       O    10.57968  -12.64389  -14.99772
      H1     9.89766  -12.22132  -14.40176
       H     2.75828  -18.45271  -10.99109
       O     3.57963  -18.49959  -11.49652
      H1     4.13591  -18.20881  -10.72350
       H     9.39797  -14.13462  -15.97206
       O     8.75682  -14.57899  -16.53225
      H1     8.65072  -15.42967  -16.13789
       H    10.54935  -18.80946   -3.90313
       O     9.58145  -18.81189   -3.84790
      H1     9.44173  -19.36460   -4.61331
       H    12.02501  -19.76329  -15.88007
       O    11.75426  -19.66440  -14.98075
      H1    11.91546  -18.70241  -14.91661
       H     0.14407  -19.54252  -11.14254
       O     0.61666  -18.73577  -11.00357
      H1     0.45121  -18.30287  -11.85288
       H     6.54415  -13.36080  -15.56601
       O     6.05158  -12.91492  -14.81644
      H1     6.82269  -12.49031  -14.41711
       H     2.54819  -14.88965  -14.75124
       O     3.06918  -14.18328  -15.06893
      H1     2.45870  -13.78939  -15.70644
       H    11.71193  -13.81684   -8.34067
       O    10.75435  -13.86884   -8.56478
      H1    10.75956  -14.83426   -8.33246
       H     7.81116  -10.70773  -13.40219
       O     8.49613  -11.39494  -13.45429
      H1     8.72923  -11.55575  -12.54742
       H     7.59142  -15.11284  -19.63719
       O     7.13618  -14.38967  -19.10861
      H1     7.82589  -14.00807  -18.51766
       H     9.87846  -16.81045  -18.64824
       O     9.53946  -17.68382  -18.98088
      H1     9.02344  -17.30538  -19.76913
       H    12.35494  -15.61203  -16.56000
       O    12.03416  -15.84037  -17.48395
      H1    11.63936  -16.70919  -17.35576
       H     5.25382  -17.21359  -17.01311
       O     5.44970  -16.95536  -17.90730
      H1     6.40875  -17.23966  -17.95578
       H    -0.74962  -17.20708  -15.58163
       O    -0.23576  -17.83755  -16.19947
      H1    -0.13113  -18.55058  -15.50501
       H     6.57698  -17.66887   -7.17685
       O     6.11491  -16.92426   -6.77105
      H1     5.20241  -17.19864   -6.68927
       H     6.55770  -12.72266   -9.38969
       O     5.97282  -12.78241   -8.64544
      H1     6.35060  -13.53403   -8.26885
       H     0.12613  -18.52896   -8.00522
       O     0.52871  -19.25883   -7.49808
      H1     1.07205  -19.70431   -8.15512
       H    11.04753  -12.86042  -10.13588
       O    10.81768  -12.49751  -10.99349
      H1    11.40309  -12.93788  -11.62512
       H    14.95178  -18.43944  -11.39112
       O    15.21177  -17.72931  -10.79703
      H1    15.12713  -18.25083   -9.96119
       H     4.31460  -14.47657  -16.64969
       O     4.60950  -14.25578  -17.53358
      H1     5.24445  -14.96114  -17.83256
       H     4.54013  -11.25892  -15.90470
       O     4.51744  -10.32194  -15.86298
      H1     3.67148  -10.24430  -15.41155
       H     8.75263  -12.61674  -10.45914
       O     7.86988  -12.27375  -10.72347
      H1     7.97132  -11.32354  -10.63337
       H     4.19572  -11.35255  -11.54204
       O     4.72550  -10.57143  -11.48806
      H1     5.53458  -10.99987  -11.78346

