180
frame 11 | Written by MDAnalysis XYZWriter (release 2.4.3)
       H    -2.79604   10.64507   -2.59246
       O    -2.94299   10.23455   -3.44001
      H1    -2.53182   10.95106   -3.94155
       H    -4.06282   16.00964   -4.81159
       O    -3.34042   15.34189   -4.92332
      H1    -3.45909   14.78647   -4.10246
       H   -10.44759    8.62107   -3.02654
       O   -10.44851    7.66922   -2.81169
      H1   -11.28245    7.49861   -3.26970
       H    -4.82680   11.83119   -7.02090
       O    -4.46118   12.67879   -6.77157
      H1    -5.13058   13.11309   -6.21804
       H    -5.51352   17.57290   -5.24170
       O    -5.60137   16.74211   -4.68875
      H1    -5.68560   16.05340   -5.36093
       H   -10.23112   12.30101    2.89380
       O   -10.22700   13.03205    3.57571
      H1    -9.48881   13.64099    3.32862
       H   -12.43980    6.49644   -5.58313
       O   -11.73081    6.12100   -6.12301
      H1   -11.80079    6.49416   -6.98094
       H    -7.14398   17.65271   -2.11325
       O    -6.63794   18.19471   -1.50471
      H1    -7.17609   18.99840   -1.37582
       H   -15.12486   12.03039   -5.25029
       O   -15.26668   12.91029   -4.84530
      H1   -16.23921   12.92614   -4.71883
       H    -9.86758   16.33069    1.25132
       O    -8.94073   16.64331    1.26578
      H1    -8.40740   15.87715    0.91312
       H    -6.75919    8.86312  -11.02805
       O    -7.42101    9.31607  -10.40491
      H1    -6.89845    9.48644   -9.57283
       H   -14.73359   14.79955   -5.14940
       O   -14.75539   15.66249   -5.57181
      H1   -15.59785   15.96891   -5.42709
       H   -10.02027   10.64847   -7.58817
       O    -9.58731   10.23953   -6.85468
      H1    -9.62176    9.29598   -6.96671
       H    -8.53480   16.08407   -3.02725
       O    -8.06066   16.88881   -3.42904
      H1    -7.20245   16.47294   -3.65293
       H    -7.80924    8.10161   -7.00528
       O    -6.97090    8.13568   -7.51866
      H1    -6.86612    7.24046   -7.82375
       H    -6.48640    6.67746   -1.12894
       O    -5.83865    6.67780   -1.79713
      H1    -5.18370    7.08186   -1.25549
       H   -12.89384   12.22987   -1.62656
       O   -12.34284   12.09272   -0.86395
      H1   -12.80064   11.29852   -0.50061
       H    -8.36527   11.38821    1.08043
       O    -7.49697   11.26303    0.63019
      H1    -6.96186   10.71457    1.28366
       H    -4.90651    9.92172    1.71549
       O    -5.30444    9.08025    1.43822
      H1    -5.27271    8.64552    2.28251
       H   -11.30178   10.81418    1.82646
       O   -10.56494   11.34688    1.49978
      H1   -11.00439   11.86815    0.79467
       H    -7.03757    9.99893   -2.07144
       O    -7.75938    9.62019   -1.50958
      H1    -7.74194   10.27509   -0.74454
       H    -3.13503   13.27275   -2.25537
       O    -2.69249   13.62117   -3.07146
      H1    -1.91475   14.13649   -2.63174
       H   -11.21546   10.19972   -5.50913
       O   -12.09659   10.60224   -5.61668
      H1   -12.25956   10.70863   -6.53941
       H    -3.74325   12.37013   -0.23610
       O    -4.12116   13.10179   -0.68567
      H1    -4.05632   13.81572   -0.06992
       H   -13.97416    9.91714   -2.65178
       O   -14.48469    9.50553   -1.93844
      H1   -13.82214    8.89602   -1.52692
       H    -9.17052   14.86735   -7.16403
       O    -9.05172   13.97120   -6.94322
      H1    -9.72428   13.81122   -6.28425
       H   -14.79334   10.48642   -6.43866
       O   -15.09410   10.36615   -5.48273
      H1   -16.00738   10.13920   -5.62428
       H   -12.29349   11.00142   -8.93598
       O   -11.43087   10.55918   -8.72081
      H1   -10.97685   10.76836   -9.54331
       H   -15.43001   11.38865   -1.70755
       O   -15.97396   12.17567   -1.83152
      H1   -16.84594   11.79156   -1.65010
       H    -8.72405   17.21774   -7.59778
       O    -8.77867   16.41786   -8.06360
      H1    -9.52030   16.59631   -8.68128
       H    -7.00908   12.30644   -4.11276
       O    -6.12261   12.50203   -3.68094
      H1    -5.81439   11.61084   -3.93465
       H   -13.30145   15.68003   -4.23718
       O   -12.72181   15.08282   -3.68119
      H1   -11.95662   15.68356   -3.60943
       H    -9.26332   18.40474   -0.92534
       O   -10.00625   17.82721   -0.97932
      H1    -9.82667   17.08904   -0.27584
       H    -5.49823   13.91776   -9.11225
       O    -4.61783   13.60657   -9.23448
      H1    -4.41367   13.36046   -8.25950
       H    -7.14225   14.48860   -5.97229
       O    -6.27520   14.26973   -5.64092
      H1    -6.42415   13.72146   -4.85331
       H    -8.33127   14.20494   -1.17257
       O    -8.85677   14.50985   -1.92294
      H1    -9.17895   13.69137   -2.28891
       H   -10.22976    7.33203   -5.82333
       O    -9.35800    7.70510   -5.71727
      H1    -8.96187    7.04634   -5.01166
       H    -9.08966   12.72059   -9.87734
       O    -8.94702   12.27072   -9.04394
      H1    -8.95326   12.98557   -8.36017
       H    -3.48584    9.71221   -9.16719
       O    -4.32043    9.21935   -9.08193
      H1    -4.88538    9.88927   -8.65034
       H    -4.83630    9.56474   -3.68481
       O    -5.81179    9.57644   -3.44812
      H1    -6.04666    8.85326   -4.10600
       H    -9.01317   11.04678   -5.27152
       O    -8.57338   11.54212   -4.52709
      H1    -9.18567   11.43249   -3.77365
       H   -13.94804   16.32397   -0.53402
       O   -13.85126   15.32735   -0.68586
      H1   -13.62526   15.23893   -1.65135
       H   -11.55361    8.73566   -8.51776
       O   -11.90887    7.86014   -8.37269
      H1   -11.69339    7.32313   -9.15907
       H   -11.60662   15.60842   -0.33717
       O   -10.90910   15.00382   -0.02092
      H1   -10.34419   14.92258   -0.80062
       H    -8.45404    6.01457   -1.33158
       O    -8.04091    6.47069   -0.54830
      H1    -8.21676    7.40036   -0.77446
       H    -2.30264   12.87080   -4.61772
       O    -1.85554   12.43628   -5.38498
      H1    -2.44057   12.48364   -6.18651
       H   -12.34139    7.14171   -0.41825
       O   -12.55719    7.92167   -0.94149
      H1   -11.76806    8.04474   -1.49027
       H   -13.98212   12.18926   -3.65083
       O   -13.29053   11.54464   -3.35810
      H1   -12.96527   11.18761   -4.27516
       H   -12.25827   13.29425   -6.94724
       O   -12.98344   13.07782   -7.60699
      H1   -12.49165   13.09074   -8.44721
       H   -13.07614    8.89637   -5.19650
       O   -13.22950    8.06595   -4.74821
      H1   -14.20846    8.12194   -4.58855
       H   -14.20285   10.41637   -9.25656
       O   -14.19057   10.55984   -8.27905
      H1   -14.14316    9.60056   -7.96952
       H   -13.21236   15.12535   -7.70353
       O   -13.21872   16.08638   -7.90610
      H1   -13.95106   16.32899   -7.30116
       H    -7.20573   13.34797    0.62891
       O    -7.44901   14.30571    0.37149
      H1    -6.61902   14.60287   -0.01898
       H   -11.59033   14.44820    1.45575
       O   -12.06034   14.52047    2.29611
      H1   -11.48520   13.94441    2.91084
       H    -8.65716    7.21154   -3.22082
       O    -8.09598    6.56427   -3.70971
      H1    -7.26361    6.65050   -3.25110
       H    -7.02442    9.97490   -7.74560
       O    -6.70003   10.81531   -8.12845
      H1    -7.52613   11.23489   -8.27695
       H   -10.93568   10.91723   -1.81245
       O   -10.32539   10.48688   -2.44928
      H1    -9.52866   10.43737   -1.95422
       H   -11.47645   17.79774   -3.86512
       O   -10.99161   17.05095   -3.45349
      H1   -10.63067   17.49759   -2.72250
       H   -11.95962   13.91235   -4.78852
       O   -11.45579   13.41182   -5.46467
      H1   -11.37489   12.54962   -4.99884
       H    -8.60637   17.73564   -5.05119
       O    -8.68636   18.25237   -5.91227
      H1    -9.65050   18.12419   -6.06380

