180
frame 0 | Written by MDAnalysis XYZWriter (release 2.4.3)
       H    -0.63364    2.57496   13.37749
       O    -1.39253    3.07256   13.01404
      H1    -1.48231    2.78437   12.08651
       H     6.97636    3.88060   17.11847
       O     6.33991    4.56359   16.85638
      H1     5.87374    4.76205   17.71094
       H     9.91345    3.05772   20.00470
       O     9.41113    3.45708   19.27350
      H1    10.13109    3.75419   18.66670
       H     4.52416    4.73678   12.36447
       O     4.77920    4.09314   11.70218
      H1     4.39055    3.30714   12.07741
       H     5.55583    8.66749   14.77563
       O     5.63453    7.96194   15.43357
      H1     5.54419    7.12344   14.94698
       H    -2.82794    4.86554   18.10749
       O    -2.65998    4.82976   17.13634
      H1    -1.97139    4.11651   17.05285
       H     7.14634    2.50770   15.46593
       O     7.92303    2.86439   15.00543
      H1     7.66372    3.00839   14.06936
       H    -0.25258    3.28256   16.07645
       O    -0.84846    2.97468   16.78529
      H1    -1.33347    2.17413   16.42161
       H     6.74112    3.30508   11.88436
       O     7.61258    2.98007   12.27337
      H1     7.73910    2.19744   11.76172
       H     8.96221   -0.00207   12.33278
       O     9.05369   -0.99193   12.39691
      H1     8.98189   -1.22440   13.34036
       H     6.79572   11.37506   17.15806
       O     7.48938   11.63582   17.79319
      H1     7.01455   11.38816   18.64541
       H     0.21800   10.53150   14.08619
       O    -0.03594   11.12445   13.32462
      H1     0.64367   11.01650   12.68795
       H     2.42900    9.63162   13.75483
       O     3.16504   10.13609   13.39699
      H1     3.34536   10.80387   14.03839
       H     3.71172    9.74069   17.41824
       O     4.17656   10.56957   17.48771
      H1     3.59338   11.14668   16.98175
       H     2.85391   -1.76656   14.55303
       O     3.73640   -1.69043   14.96280
      H1     3.58379   -0.92250   15.49631
       H     4.81776    4.40822    9.91234
       O     4.81484    4.76261    8.99999
      H1     4.07924    4.21477    8.61856
       H     3.16644    7.99045   10.10936
       O     3.49649    8.69827   10.69629
      H1     3.19692    8.30524   11.53473
       H    -2.80463    0.46336   16.88875
       O    -2.25376   -0.23214   17.29837
      H1    -2.05189    0.21083   18.12839
       H     1.16553    0.07594   17.75550
       O     1.27290   -0.67246   17.10725
      H1     1.98671   -1.18449   17.43886
       H     9.12267   -1.29248   19.57848
       O     8.87352   -1.25746   18.65215
      H1     9.69696   -1.49317   18.17426
       H     2.73238    6.33938   12.02093
       O     3.24004    6.78379   12.73443
      H1     2.59047    7.40241   13.04184
       H     2.25678    0.47711   10.02126
       O     3.12406    0.14094   10.11129
      H1     3.05159   -0.78566    9.88814
       H     0.60441    5.13057   11.30430
       O     1.48856    5.02458   11.73245
      H1     1.52727    4.16658   12.13307
       H     4.35157    5.01416   15.15686
       O     3.65556    4.58368   15.72103
      H1     4.17749    4.10352   16.34427
       H    -0.37441    6.31858   15.90275
       O    -0.41506    6.37992   14.90703
      H1    -1.33477    6.43281   14.58814
       H     7.32529    8.41903   13.35752
       O     7.92422    7.67887   13.15672
      H1     8.51266    7.78485   13.88524
       H     9.30108    3.69639   11.14074
       O    10.12810    4.11327   10.85422
      H1    10.80856    3.41927   10.78875
       H     1.18827   10.97154   16.86735
       O     0.90374   10.20228   16.33278
      H1     1.63825    9.58246   16.54791
       H     0.67555    4.84757   14.35062
       O     0.98870    4.00322   14.70844
      H1     1.94026    4.24734   14.88361
       H     3.38714    6.27993   19.56859
       O     2.51402    6.78463   19.33615
      H1     2.69143    7.66530   19.80514
       H    -0.96277    6.99026   18.39952
       O    -0.23902    6.80647   17.83232
      H1     0.25803    6.09863   18.24488
       H     2.61137    7.54515   17.79082
       O     2.86438    8.15464   17.09525
      H1     3.56892    7.68414   16.67552
       H     5.09787    1.31999   16.71079
       O     5.86666    1.20068   16.10508
      H1     6.51111    0.64784   16.54381
       H     1.58066    2.51253   18.86880
       O     0.97395    1.86211   18.49058
      H1     0.22573    2.48343   18.29779
       H     1.66859   -0.25039   12.67831
       O     1.40488   -0.84354   13.39226
      H1     1.00155   -0.18860   13.93264
       H    -0.96974   -0.38708   14.62254
       O    -0.47190    0.37599   14.89836
      H1    -0.03973   -0.02292   15.64075
       H     2.87162    1.54658   18.14517
       O     3.51698    1.70481   17.42262
      H1     2.98386    1.82736   16.60173
       H     9.07642    1.63448    9.76577
       O     8.63177    1.19269   10.51107
      H1     8.09194    0.51497   10.08101
       H     7.87033   10.04683   15.29788
       O     8.08051    9.14881   15.72784
      H1     7.48201    8.44557   15.46112
       H     5.04901    0.78591   13.02865
       O     4.25213    1.19735   12.59737
      H1     4.11469    0.58792   11.85130
       H     8.86629    4.60739   15.00414
       O     9.49445    5.24714   15.23126
      H1     8.94471    6.02941   15.08291
       H    -3.49497    1.89875   15.04065
       O    -3.33827    2.15261   15.94104
      H1    -3.26901    3.10761   15.83983
       H     0.55284    1.44970   11.26115
       O     0.59433    0.88813   10.45270
      H1     0.44405    1.62649    9.75734
       H    11.29417    5.34065   18.29553
       O    11.35984    4.67514   17.53694
      H1    10.73272    5.06146   16.82198
       H    -0.67187    9.47007   17.91737
       O    -0.52981    9.51518   18.86578
      H1    -0.10396    8.64317   19.00866
       H    -2.86222    5.70767   15.45916
       O    -3.15746    6.26353   14.69781
      H1    -3.87737    6.81265   15.15951
       H     4.99513   -1.28333   13.87504
       O     5.86028   -1.14052   13.43450
      H1     6.56784   -1.21318   14.02632
       H     0.24599    7.95180   12.59574
       O     0.91493    8.18019   13.24430
      H1     0.50792    7.71936   14.06772
       H     8.80568   -1.16175   15.28496
       O     8.35111   -1.98919   15.09561
      H1     8.48795   -2.29112   15.99288
       H     7.92412    6.74498   10.54735
       O     7.89858    7.69005   10.29653
      H1     7.79175    8.17271   11.10646
       H     6.35764    4.99251   15.19465
       O     6.14172    5.53713   14.39149
      H1     6.97234    5.54131   13.84435
       H     4.97495    9.38547   12.82586
       O     5.86816    9.58895   13.11116
      H1     5.72647   10.48901   13.45702
       H     7.46607    5.74696    8.57151
       O     7.92088    5.21847    9.24471
      H1     7.33980    4.47196    9.27668
       H     2.54624    1.96100   12.78215
       O     1.66449    2.39348   12.57371
      H1     1.43508    2.82049   13.47053
       H     2.71856   -4.39526   17.50631
       O     3.18439   -3.60236   17.69658
      H1     4.04011   -3.98827   17.76766
       H     8.49363    1.98800   18.66898
       O     8.05409    1.28085   18.19581
      H1     8.55646    0.50515   18.50241
       H     4.97770   -3.55099   15.31627
       O     5.73813   -3.63660   15.92565
      H1     6.44063   -3.15527   15.42537
       H     9.49098    0.96987   16.50552
       O     9.51172    0.64294   15.59251
      H1     9.05336    1.38407   15.11778
       H     6.86323    8.08272   17.71297
       O     7.36685    7.29190   18.03633
      H1     6.89102    6.49602   17.61918
       H     9.93335    8.63016   18.29802
       O     9.62991    9.53536   18.21631
      H1     8.74306    9.43718   17.82291

