180
frame 4 | Written by MDAnalysis XYZWriter (release 2.4.3)
       H    15.34502    4.28161    4.36232
       O    14.53626    4.80496    4.59099
      H1    13.82973    4.15814    4.60643
       H    17.67517   -0.58427   10.09414
       O    17.65554    0.36427   10.11867
      H1    18.47717    0.69121    9.75524
       H    10.98890    4.50944    9.63292
       O    11.49237    4.11526    8.85467
      H1    11.74870    4.97916    8.56732
       H     6.75510    3.28421   11.95323
       O     6.46176    2.79010   11.14568
      H1     5.83528    2.19237   11.62633
       H    13.61514   -0.52618   13.65866
       O    14.54026   -0.82356   13.53129
      H1    14.97229   -0.08573   13.96391
       H    15.88977    2.85713   11.49534
       O    16.20971    2.39436   12.33423
      H1    16.67794    1.68678   11.86132
       H     8.01758    0.83382   13.12664
       O     8.96297    1.01762   13.30827
      H1     9.28372    1.24947   12.41698
       H    12.25051    1.76325   11.11019
       O    12.21757    1.42857   10.22100
      H1    12.24821    0.48266   10.28921
       H    12.86726    5.21346   12.57401
       O    13.72047    4.82318   12.43088
      H1    13.52145    3.87394   12.49455
       H     8.44501    2.81935   10.43287
       O     9.31980    2.54525   10.70171
      H1     9.85231    2.31409    9.90411
       H    16.53847    0.42855    8.69861
       O    15.87295    0.66903    8.03760
      H1    15.46319    1.46739    8.44213
       H     9.61077   -2.11768   12.75747
       O    10.54692   -2.12908   12.89251
      H1    10.80718   -1.27219   13.28091
       H    12.37660   -1.45385   17.03535
       O    12.06758   -0.57628   16.86920
      H1    11.09036   -0.59152   17.03734
       H    15.51334    0.00721    4.32930
       O    15.06628   -0.84007    4.25295
      H1    15.28084   -1.00597    3.35817
       H    11.45035   -3.16637   14.35275
       O    11.90561   -3.09271   15.19844
      H1    11.76828   -4.05448   15.41705
       H     6.13118   -0.07210    8.63716
       O     6.43276   -0.34287    9.51126
      H1     6.39171    0.53589    9.91784
       H    13.70400    2.72318   10.02735
       O    14.69134    2.75157    9.87493
      H1    14.67091    3.42329    9.20439
       H    15.08100    5.87078   12.94390
       O    15.67828    6.33629   13.55700
      H1    16.03455    5.53776   14.01960
       H    11.22130   -1.07826    5.94231
       O    10.33379   -0.81602    6.15773
      H1     9.94804   -0.54865    5.28734
       H     5.19285   -0.30714   13.63945
       O     6.12076   -0.50577   13.33495
      H1     6.05369   -1.47400   13.33397
       H    11.35672   -1.54649   11.25597
       O    12.02504   -1.44080   10.58146
      H1    12.50247   -2.24074   10.77240
       H    12.37265   -6.87260   10.21364
       O    11.94601   -7.02682   11.14740
      H1    11.68278   -6.12790   11.46670
       H    14.22141   -3.93728    8.74673
       O    14.33330   -4.54762    9.46512
      H1    14.12842   -4.03889   10.27520
       H    16.20290   -4.83016   12.65466
       O    16.09729   -5.09741   11.73172
      H1    16.16865   -4.17724   11.41352
       H    10.66552    4.80261   13.22594
       O    10.59137    4.51134   12.28879
      H1    10.17173    3.63312   12.36623
       H    13.05537    6.46363    6.40453
       O    12.55505    6.26313    7.22951
      H1    12.22568    7.13514    7.33025
       H    13.56136   -2.97490   12.85319
       O    13.50853   -3.52177   12.02433
      H1    12.91920   -4.21921   12.31938
       H    17.88129   -0.29233   12.35589
       O    18.50772   -0.11297   13.08626
      H1    18.54639   -0.95321   13.50198
       H    13.57564    2.23883   13.45497
       O    13.46561    2.16678   12.50612
      H1    14.37310    2.09530   12.27512
       H    11.00002    3.94464    5.55160
       O    11.75073    4.17599    4.95945
      H1    11.98246    3.36300    4.55221
       H    11.86804   -0.55128   15.01986
       O    12.07188   -0.28951   14.10741
      H1    11.73925    0.58713   13.94372
       H    16.47104   -4.37717    8.72119
       O    17.20243   -3.91626    8.23800
      H1    17.93290   -4.60310    8.21326
       H     9.90385    5.44823    6.58946
       O     9.69681    4.48701    6.88697
      H1    10.32549    4.24139    7.56793
       H    17.40178    3.45770    7.28986
       O    17.32511    3.16546    6.33294
      H1    17.85448    2.36157    6.38304
       H     5.20828    0.72181    6.00250
       O     5.54412    0.77261    6.92084
      H1     6.37001    1.30507    6.95795
       H    16.39271    1.44214   13.76377
       O    16.30947    0.90868   14.60304
      H1    17.13179    0.35965   14.65881
       H    11.15176    0.78566    6.64910
       O    11.90787    1.40821    6.61816
      H1    11.88443    1.91596    7.42667
       H    10.94059    0.83221    9.02631
       O    10.08864    0.72466    8.53571
      H1    10.06428   -0.19419    8.21227
       H    15.68153   -3.99043   14.50876
       O    16.32577   -4.72410   14.30227
      H1    17.04167   -4.04685   14.14625
       H    11.49357    5.78369   15.12321
       O    10.95565    5.02522   14.72819
      H1    10.10881    5.17409   15.06195
       H    15.11635    4.62237    6.92043
       O    14.73621    4.76285    7.81423
      H1    13.85603    5.28320    7.74458
       H     9.41194   -2.23062    6.53682
       O     9.06808   -3.08507    6.94103
      H1     9.03097   -3.58258    6.09528
       H    13.57574   -3.02987   15.35520
       O    14.55074   -2.81861   15.29158
      H1    14.65345   -2.04648   14.68211
       H    13.05605    2.85988   15.46878
       O    13.82782    2.53650   15.11356
      H1    14.09855    2.03121   15.89665
       H     7.27595   -3.57494    9.18196
       O     8.10693   -4.07036    9.02032
      H1     8.46059   -3.63188    8.18344
       H    16.19687   -1.29414    5.57945
       O    16.60489   -1.46828    6.39094
      H1    16.33409   -0.76158    6.98822
       H    10.77124    6.85318   10.36764
       O    10.29017    6.57365    9.59953
      H1     9.37417    6.52350    9.95514
       H    13.67750   -1.63703    4.87516
       O    13.00801   -2.22535    5.36363
      H1    13.39788   -2.27181    6.29786
       H    12.77507    1.85963    4.96172
       O    13.22069    2.08705    4.12984
      H1    12.91922    1.35330    3.53254
       H     7.97477    5.27115    8.22753
       O     7.69972    5.92387    8.85703
      H1     7.01923    5.56025    9.42994
       H    16.96125   -2.49212   12.50331
       O    16.30672   -2.29435   11.75452
      H1    15.61496   -1.84814   12.28573
       H    10.71679   -4.30182    7.59724
       O    11.41266   -4.98014    7.50674
      H1    11.85702   -4.55260    6.68252
       H    10.43669   -5.48653   12.89417
       O    11.21558   -4.93853   12.67485
      H1    10.81977   -4.10574   12.35158
       H     9.02183   -0.31707   16.20465
       O     8.88160   -0.70978   15.31044
      H1     9.16307    0.04613   14.72091
       H     4.86131   -2.97438   10.54732
       O     5.70466   -2.99787   10.13179
      H1     5.94452   -2.09831   10.00194
       H    11.19122   -4.20274    4.66730
       O    10.49583   -3.53670    4.63342
      H1    10.94067   -2.85197    4.19405
       H    16.34921    3.37434   14.05366
       O    16.75591    4.12830   14.58028
      H1    16.36301    4.03438   15.46772
       H    15.01681    2.02004    4.30848
       O    15.96479    1.80801    4.50917
      H1    16.13551    2.07384    5.42667
       H     8.70956    1.49854    7.51126
       O     8.09591    1.79846    6.84652
      H1     8.72434    2.24939    6.24650
       H    14.95411   -2.07983    7.46613
       O    14.05367   -2.35534    7.74732
      H1    13.64215   -1.49670    7.83015

