180
frame 7 | Written by MDAnalysis XYZWriter (release 2.4.3)
       H     5.78458   11.39781   14.82351
       O     6.29849   10.93749   14.11147
      H1     6.15840   11.48444   13.35810
       H    12.10194    4.94936    9.34284
       O    12.51057    4.56818    8.51239
      H1    12.42713    5.28991    7.87679
       H     3.78872    1.79443    9.72972
       O     4.22149    1.47170   10.52084
      H1     3.86584    2.12316   11.12329
       H     3.91766    8.85500   15.42147
       O     2.97502    8.66343   15.53695
      H1     2.74944    7.99404   14.89353
       H    12.12247   12.84711   11.73879
       O    11.54567   13.38794   11.21111
      H1    10.71880   13.33886   11.76277
       H     9.39558   10.24069   10.27683
       O     8.89838    9.58813   10.83582
      H1     7.97897    9.82154   10.77731
       H    13.70199    6.42923   10.50460
       O    14.40648    5.68943   10.50756
      H1    14.12356    5.14811    9.76193
       H     9.19086    3.80661   11.75141
       O    10.03426    3.43763   12.03629
      H1    10.12547    2.78573   11.30071
       H     9.29643    8.69255    5.61864
       O    10.04480    8.12219    5.59813
      H1     9.97697    7.74199    6.48523
       H     8.16787   10.65138   16.75659
       O     7.61257   11.37230   17.11288
      H1     7.63598   11.36298   18.09876
       H     4.94125    5.03812   10.51020
       O     5.38407    5.49445    9.73251
      H1     4.59858    5.41922    9.14473
       H     2.93883   10.10561   11.90764
       O     3.50746   10.34260   11.17094
      H1     3.59679    9.50743   10.69698
       H     3.93597    7.64405    9.28156
       O     3.47673    7.82329   10.12994
      H1     4.17869    7.70741   10.85228
       H     5.75605    0.53420   10.56089
       O     6.41117   -0.20368   10.61034
      H1     6.08216   -0.77490   11.31657
       H    10.99657    8.16126   13.18707
       O    10.19008    8.30070   13.74615
      H1    10.07214    9.24187   13.55199
       H     4.04998    4.29078    7.61589
       O     3.36482    4.91591    7.66367
      H1     2.59523    4.40040    7.93258
       H     6.53877    7.51298   12.08497
       O     5.61481    7.36187   12.34757
      H1     5.72111    6.38988   12.48930
       H     2.97328    6.15481   11.24227
       O     3.10680    5.15841   11.27102
      H1     2.57257    4.84963   12.01665
       H     6.75607    2.24265   13.81221
       O     6.07482    2.18795   14.49522
      H1     6.11084    2.98149   15.02373
       H     9.82769   10.39956   12.21511
       O    10.38016   10.94994   12.83029
      H1    11.29830   10.92589   12.51698
       H    14.91191    7.11781   13.94092
       O    13.97994    7.23438   14.26571
      H1    14.06909    7.87125   15.02915
       H    13.38043   10.72350   11.55028
       O    12.61721   10.14283   11.36832
      H1    12.23620   10.46350   10.56963
       H     8.53692    7.09486   11.15749
       O     8.49031    6.89268   12.11678
      H1     9.23147    7.37165   12.47307
       H    11.56943    6.31372   10.90533
       O    10.96136    5.68129   10.49536
      H1    10.74847    5.12246   11.29806
       H     2.50570    5.98070   15.63752
       O     3.06256    5.75152   14.84140
      H1     3.86760    6.20466   15.13413
       H    13.00739    7.46382   12.65656
       O    12.37355    7.54112   11.90645
      H1    12.61529    8.39664   11.51190
       H     8.20210   13.92897   12.33183
       O     9.00135   13.88191   12.92500
      H1     9.19504   14.82176   13.08462
       H    12.34951    2.41858   13.82965
       O    12.54833    3.09873   13.21046
      H1    11.65086    3.35922   12.96149
       H     5.85911   10.95411    8.24070
       O     5.48565   10.39686    7.59746
      H1     5.56981   10.90739    6.70297
       H     8.82182    8.48085   15.52777
       O     8.85727    9.04238   16.31674
      H1     9.55245    8.55204   16.84990
       H     9.26166    5.06736    7.09480
       O     9.01291    4.24187    6.70303
      H1     9.83758    3.80419    6.72996
       H     1.93130   10.78406    7.41920
       O     2.76039   11.26170    7.31077
      H1     3.54499   10.90037    7.81266
       H     5.30730    2.53350    6.14550
       O     5.29406    2.92930    7.05201
      H1     5.99286    2.32866    7.41217
       H    12.08469   11.10185   15.44661
       O    11.59182   10.64722   16.16127
      H1    10.88587   10.32002   15.61938
       H    11.11064    1.67844    7.04335
       O    11.38345    2.50679    6.69078
      H1    11.80625    2.88322    7.46404
       H     9.57733   11.66518    8.04152
       O     8.93939   12.28902    7.61776
      H1     8.18766   12.32926    8.25075
       H    11.38157    1.63892   10.16713
       O    10.50514    1.34983    9.95588
      H1    10.44579    0.57242   10.52683
       H     5.84919    8.95359   16.22316
       O     5.58101    8.55391   15.40795
      H1     5.84153    9.24221   14.75038
       H     4.60027    2.07569   13.66126
       O     3.91122    1.56669   13.17694
      H1     3.96859    0.73287   13.65223
       H     9.83821    6.86244   14.93558
       O     9.63332    6.27445   15.70660
      H1     8.74196    5.95119   15.49512
       H    13.53403    7.18359    6.54953
       O    12.83694    6.54312    6.25719
      H1    12.86795    6.72639    5.32566
       H    11.47484    4.77319   17.55837
       O    11.29834    4.28895   16.73197
      H1    10.74926    5.01527   16.35135
       H     5.22364    8.78124    7.66451
       O     4.61935    8.04350    7.62940
      H1     5.21703    7.34045    7.53345
       H     7.02940   12.24576   10.31390
       O     6.87300   12.21017    9.35978
      H1     6.01687   12.61807    9.33358
       H    10.11217    6.83448    8.89419
       O     9.68371    6.91307    8.05422
      H1     8.91664    7.43851    8.32951
       H     0.53938    6.71924   13.50994
       O     1.37199    7.06756   13.20448
      H1     1.92660    6.39473   13.71190
       H    13.54180   12.09485    8.28982
       O    12.91888   11.30312    8.15732
      H1    13.25695   10.69525    7.51628
       H     6.77208    8.26196    9.33139
       O     7.31733    7.43943    9.23568
      H1     6.58239    6.81445    9.40116
       H     6.50806    5.18233   13.96472
       O     6.43611    4.89908   13.03912
      H1     7.36781    5.08680   12.74376
       H     5.42655   10.05792   11.44983
       O     6.40088   10.12483   11.49991
      H1     6.50222    9.97595   12.47955
       H     7.95062    3.11995   10.19657
       O     7.54758    3.75251   10.79321
      H1     6.92896    4.17613   10.18124
       H     5.16059   12.36207   11.81610
       O     5.88368   12.98478   12.10867
      H1     5.35238   13.70626   12.41627
       H     7.59714    5.27777    5.84937
       O     6.76238    5.33618    5.38377
      H1     6.86563    6.12424    4.82468
       H     9.45122   10.99208    4.64403
       O     8.87932   10.58639    5.30329
      H1     8.77499   11.30062    5.94554
       H     6.48464    6.74537   15.82387
       O     6.73384    5.82198   15.68213
      H1     6.70612    5.45737   16.58322
       H    10.96628   12.01892   10.09274
       O    10.67094   11.31269    9.55003
      H1    11.47667   11.31301    9.00011
       H     8.15241   13.42325   14.63032
       O     7.84258   13.72377   15.51768
      H1     7.90169   12.87810   15.96954
       H    10.96685    8.91891   18.43106
       O    11.02726    8.16328   17.82611
      H1    11.03402    7.42524   18.41923
       H    14.85324    3.18026   13.97806
       O    15.03281    4.08813   14.35672
      H1    14.18624    4.54415   14.15554
       H     8.91183    1.68763    8.99882
       O     8.11107    2.04405    8.59743
      H1     8.48744    2.72011    8.03462

