180
frame 82 | Written by MDAnalysis XYZWriter (release 2.4.3)
       H     9.40754    9.71084  -11.70136
       O     9.78161   10.46684  -12.13081
      H1     9.16604   10.51264  -12.83282
       H     7.45534   14.12106  -10.17467
       O     6.51964   14.21981   -9.93739
      H1     6.08413   13.74569  -10.63844
       H     6.84518   14.46922  -14.39915
       O     7.07197   13.75062  -14.95372
      H1     7.42142   13.01216  -14.39968
       H    12.18798   15.00267  -16.35262
       O    11.82834   15.86472  -16.50237
      H1    10.91269   15.62352  -16.34630
       H    14.68830    9.97676  -18.89014
       O    14.95849    9.12689  -18.48895
      H1    14.37154    8.43639  -18.85783
       H     8.54099   14.71122  -16.91266
       O     8.98181   15.30310  -16.31177
      H1     8.85126   14.74009  -15.54146
       H     9.00988   17.88236  -14.63011
       O     9.71242   18.43441  -14.26674
      H1     9.31166   18.90615  -13.50605
       H     1.75040   19.48858  -19.34649
       O     2.11978   19.12615  -18.49743
      H1     1.64825   19.61200  -17.82202
       H    14.79506   16.83618  -11.27664
       O    15.43265   16.25047  -10.76784
      H1    15.06261   16.38099   -9.86299
       H     4.45131   16.82212  -15.41637
       O     3.81356   16.47161  -16.07711
      H1     3.58264   15.60617  -15.59191
       H    14.92944   18.46718  -16.45932
       O    15.24034   17.72825  -17.06025
      H1    15.79213   18.21236  -17.69541
       H    18.43739   15.18790  -10.20645
       O    19.20817   15.60243  -10.64736
      H1    18.67097   16.35420  -11.06508
       H    12.27538   13.83056   -9.55891
       O    12.82360   13.94676  -10.33601
      H1    13.57763   14.34653   -9.91497
       H    13.50679   18.58672   -7.05082
       O    12.94251   17.83397   -7.27985
      H1    12.12571   17.83469   -6.73785
       H    17.01706   15.59279  -14.77946
       O    16.45388   15.83207  -13.99584
      H1    16.25017   14.91324  -13.64900
       H     4.10517   15.46247  -13.24104
       O     4.76388   16.12046  -13.00908
      H1     4.37088   16.36537  -12.14104
       H    13.27901   11.39415  -16.65684
       O    13.80965   11.90059  -17.29959
      H1    14.14994   12.65956  -16.75903
       H    19.44037   13.13568  -15.21679
       O    18.57975   13.63621  -15.06765
      H1    18.87210   14.56005  -15.14920
       H    12.97466   13.63823  -19.94187
       O    13.54277   12.86747  -19.79720
      H1    13.39309   12.75981  -18.85498
       H    14.65674   11.37346  -10.05713
       O    13.66967   11.21161  -10.07399
      H1    13.34522   12.14868  -10.02898
       H     4.96354   17.63062  -13.63002
       O     5.09805   18.51457  -14.09685
      H1     6.02939   18.51707  -14.41114
       H     9.34488   16.56200   -8.36172
       O     9.30757   16.02586   -9.15222
      H1     9.52859   15.15528   -8.79714
       H     7.39030   10.73795  -14.56168
       O     7.88056   11.28852  -13.92595
      H1     7.09333   11.56635  -13.30996
       H    12.21394   10.81949  -14.59241
       O    12.24836   10.41865  -15.47529
      H1    11.45817    9.83189  -15.58848
       H    12.57014   15.79384  -14.66909
       O    13.04187   15.17965  -14.12050
      H1    12.39640   14.56529  -13.75819
       H     9.83825    7.98222  -16.20106
       O     9.82165    8.65591  -15.43013
      H1    10.07378    8.10956  -14.68162
       H    12.98145   11.38497  -11.92013
       O    12.40059   11.39396  -12.72593
      H1    11.71320   10.73249  -12.51710
       H    13.71231   15.67508   -7.68934
       O    14.26929   15.28462   -8.37001
      H1    14.49800   14.43498   -7.98352
       H    18.28820   13.72075  -19.18297
       O    18.45920   14.61388  -18.76101
      H1    18.50369   15.35570  -19.42825
       H    12.18505   18.72261  -17.42151
       O    12.75347   18.76314  -18.14681
      H1    13.60899   18.53706  -17.79495
       H    11.69707   14.51684  -12.13483
       O    11.21698   13.93662  -12.78017
      H1    11.64825   13.04399  -12.60786
       H    16.67345   19.15498  -14.87934
       O    17.46304   18.74060  -14.48292
      H1    17.13515   18.38158  -13.62657
       H    15.52169   14.19892  -15.76679
       O    15.03572   13.48795  -15.31035
      H1    14.38770   14.03453  -14.75526
       H    11.64967   17.17116  -11.13458
       O    11.36500   16.64375  -11.92783
      H1    11.38405   17.35594  -12.54987
       H    18.54714   17.92722  -16.35889
       O    18.63241   17.87256  -17.35747
      H1    19.36833   17.24384  -17.41036
       H    15.59854   12.01871  -14.65615
       O    15.87421   11.18096  -14.16607
      H1    16.87290   11.37911  -14.25283
       H    11.41095   16.79595  -18.90615
       O    10.48198   16.47035  -18.91427
      H1    10.53787   15.93387  -18.14634
       H     9.52048    9.27328  -18.43014
       O     9.48285    8.34238  -18.18076
      H1    10.30201    8.00356  -18.64035
       H    14.61929    9.08832  -14.13951
       O    13.90011    8.51040  -14.47440
      H1    13.31310    9.13133  -14.95053
       H    17.76612   18.65195  -10.96281
       O    17.69928   17.81930  -11.55678
      H1    16.96305   17.37061  -11.07696
       H    13.64304   16.57760  -13.11495
       O    14.09281   17.42353  -13.06654
      H1    15.01474   17.16919  -13.32046
       H     6.18636   14.66699  -16.53556
       O     5.95312   14.60192  -17.47400
      H1     5.45274   15.40668  -17.62704
       H    10.23249   13.84778  -19.37939
       O     9.89748   13.08832  -18.80639
      H1    10.17380   12.33856  -19.35472
       H    16.47338   11.73285  -11.65703
       O    16.40333   11.09418  -10.90651
      H1    16.21867   10.27752  -11.37918
       H    19.98736   16.39703  -14.34354
       O    19.14359   16.36708  -14.72304
      H1    18.60321   16.93122  -14.10919
       H     3.27545   12.05572  -17.14157
       O     4.17984   11.74046  -16.82616
      H1     4.78512   12.48368  -16.88543
       H     8.85146   12.58213  -11.07285
       O     9.09921   13.46425  -10.75274
      H1     9.97978   13.59242  -11.07094
       H     9.33832   18.92009  -11.39132
       O     9.28823   19.66965  -12.01275
      H1     8.41625   20.08809  -11.73044
       H     3.52168   16.52641  -17.99689
       O     4.06529   16.56077  -18.81642
      H1     3.52964   16.25081  -19.55299
       H     7.95781   16.70942  -15.91765
       O     7.48210   17.50561  -15.57822
      H1     7.71930   18.24615  -16.15389
       H    15.61452   14.64909  -11.47843
       O    15.87761   13.73532  -11.75965
      H1    15.02170   13.36735  -11.89891
       H    19.92237   11.44657  -17.53691
       O    19.46146   10.99328  -16.79663
      H1    18.54863   11.34691  -16.78638
       H    15.89531   10.98694  -16.55380
       O    16.65504   10.79947  -17.15288
      H1    16.61569    9.85817  -17.39598
       H     9.16560   16.22158  -12.90131
       O     8.91962   15.42224  -13.37268
      H1     9.62343   14.75384  -13.18637
       H    16.90655   15.13126  -17.68292
       O    15.98785   15.11024  -17.47836
      H1    15.79366   16.01599  -17.33104
       H     6.99337   18.48226  -10.43871
       O     6.36820   19.17019  -10.30766
      H1     6.71842   19.69188   -9.61194
       H     7.62563   17.07285  -12.14340
       O     8.04395   17.37702  -11.36099
      H1     8.28219   16.55791  -10.85532
       H     4.29038   19.20679  -12.82952
       O     3.77581   19.49934  -12.08079
      H1     4.34261   19.33048  -11.32471
       H    10.96586   17.13398   -9.50555
       O    11.37666   18.00318   -9.52329
      H1    12.05467   17.91908   -8.84476
       H    15.84355   12.58872  -19.87935
       O    16.64968   12.22998  -19.45331
      H1    16.39143   11.75390  -18.65714

