180
frame 8 | Written by MDAnalysis XYZWriter (release 2.4.3)
       H    -9.16840   10.78262  -12.12144
       O    -9.76689   10.55745  -12.85522
      H1    -9.71855   11.31053  -13.48456
       H   -12.81030    8.99178  -10.99812
       O   -13.32833    8.66061  -10.27991
      H1   -12.66709    8.37619   -9.66966
       H    -1.68699    0.14616  -13.43173
       O    -2.08638    0.46028  -12.60293
      H1    -2.83308    0.94670  -12.98326
       H   -12.71436    4.24087  -11.69641
       O   -13.47828    3.72039  -12.06107
      H1   -13.95239    4.41581  -12.50355
       H   -10.42117    7.61210  -10.42223
       O   -10.05335    6.78918  -10.57352
      H1    -9.84062    6.88536  -11.49030
       H   -13.06615    4.66283   -8.80977
       O   -13.50350    5.13646   -8.07384
      H1   -14.29626    4.62482   -7.98694
       H    -3.98080    0.91588  -17.28175
       O    -3.55748    0.76147  -16.42359
      H1    -3.47955   -0.16792  -16.25014
       H    -8.47608   -0.15652  -18.11881
       O    -8.74195   -0.13599  -17.21016
      H1    -8.91400   -1.01850  -16.88667
       H    -7.20728    1.64938   -7.67872
       O    -7.17616    0.94466   -6.99224
      H1    -8.11624    0.90673   -6.66040
       H   -11.48892    9.91737  -12.70190
       O   -12.39963    9.70527  -12.82767
      H1   -12.28131    8.81879  -13.13358
       H    -6.30003   -1.21743   -9.33310
       O    -7.18826   -0.99303   -9.06065
      H1    -7.13853   -0.28694   -8.41833
       H    -4.69431    6.60575  -18.18275
       O    -4.48857    5.62319  -18.12901
      H1    -3.77614    5.57026  -17.50048
       H    -3.76816    4.97050  -12.85287
       O    -4.06717    4.78006  -13.72416
      H1    -4.93755    5.11195  -13.77359
       H    -2.71599    8.54636  -13.47503
       O    -2.20623    9.04541  -12.84344
      H1    -2.93289    9.59763  -12.45544
       H    -6.50598    1.87415  -15.28022
       O    -7.21679    1.27386  -15.05078
      H1    -7.70853    1.06369  -15.89538
       H    -6.38739    5.09087  -15.81366
       O    -6.47588    5.85973  -15.20285
      H1    -7.01267    5.56535  -14.45617
       H    -6.25191   -1.33935  -13.18298
       O    -6.63944   -1.42727  -14.06774
      H1    -6.68313   -0.45908  -14.26443
       H    -1.47725    5.62759  -10.95078
       O    -0.82778    4.90018  -11.16425
      H1    -0.78402    4.92263  -12.11184
       H    -4.53051    7.37349  -14.46607
       O    -3.98237    8.08483  -14.65457
      H1    -4.61052    8.73438  -14.96483
       H   -14.64957    5.71712  -14.11535
       O   -15.29570    5.01611  -14.28513
      H1   -15.18340    4.89214  -15.20666
       H   -10.43818    8.61681  -16.64006
       O   -10.23933    9.04004  -15.77291
      H1    -9.95121    9.92515  -16.02575
       H    -7.77424    9.02379  -11.05937
       O    -7.84540    9.69813  -10.37275
      H1    -7.58029    9.28941   -9.54785
       H    -7.16621    8.43668   -7.68851
       O    -6.68972    8.01371   -8.36950
      H1    -6.95139    7.07324   -8.20804
       H    -4.65524    9.83135  -17.17864
       O    -4.84862   10.37625  -16.35648
      H1    -5.75770   10.00490  -16.23604
       H    -8.54347    8.72348  -15.61553
       O    -7.59036    8.46005  -15.52219
      H1    -7.60156    7.58799  -15.06437
       H    -7.93428   -0.25628  -10.51449
       O    -8.40433    0.31722  -11.13828
      H1    -8.89194   -0.28090  -11.72201
       H    -8.72069   -3.20297  -12.35465
       O    -8.89760   -2.46328  -12.93616
      H1    -7.99903   -2.10535  -13.16607
       H    -8.52379    4.08453  -13.30852
       O    -8.01692    4.88354  -13.19948
      H1    -8.67157    5.64321  -13.25110
       H   -11.30122    7.66581  -19.23101
       O   -10.87555    8.03067  -18.40870
      H1    -9.93373    7.94385  -18.65529
       H   -12.11213    0.74794  -13.00071
       O   -12.79740    0.88759  -12.36528
      H1   -12.91817    1.83080  -12.22181
       H    -4.49571    1.31715  -14.70537
       O    -4.66147    1.73821  -13.86721
      H1    -4.54093    2.67131  -14.09845
       H    -7.92929    7.64515  -19.00353
       O    -8.10681    7.31987  -18.16373
      H1    -7.59921    7.70777  -17.48431
       H    -7.17355    8.87056  -13.19889
       O    -6.89821    8.39332  -12.40851
      H1    -6.52934    9.09803  -11.94133
       H   -14.21087    3.29750  -16.06488
       O   -14.73606    3.71941  -16.79610
      H1   -15.66870    3.40506  -16.85988
       H   -14.85974    7.25895  -12.41110
       O   -14.03493    6.80689  -12.50449
      H1   -13.58763    6.97643  -11.66002
       H    -5.52408    5.45660   -8.13278
       O    -6.32606    5.32217   -8.62106
      H1    -6.01838    5.40637   -9.55256
       H    -9.06893    2.11425  -12.80339
       O    -9.18278    2.59646  -13.64780
      H1    -8.54059    2.14661  -14.23785
       H   -12.06631    0.79318  -17.11783
       O   -11.27980    1.41873  -17.29775
      H1   -10.84131    0.75365  -17.89310
       H   -10.07748    2.42434   -9.16958
       O    -9.98966    2.61088  -10.09906
      H1    -9.61134    1.79847  -10.47473
       H    -3.78294    8.99736   -8.82841
       O    -4.17997    8.18251   -9.25509
      H1    -5.05465    8.24769   -8.83881
       H    -7.03575    3.46323  -17.17674
       O    -6.07735    3.54119  -16.96940
      H1    -5.70782    4.30026  -17.46434
       H    -9.80385    8.07209  -13.73195
       O    -9.65265    7.18680  -13.35758
      H1   -10.26000    6.64982  -13.88634
       H    -6.53405    5.43922  -12.07379
       O    -5.84476    5.90919  -11.61222
      H1    -6.12804    6.80896  -11.77708
       H   -11.16978    0.82041  -15.28815
       O   -10.87479    0.71442  -14.32962
      H1   -10.21498    1.39869  -14.27761
       H   -11.11727    4.14428   -9.96051
       O   -11.70345    4.85770  -10.24419
      H1   -11.05085    5.49969  -10.52242
       H    -6.42488   12.01329  -14.18649
       O    -6.33066   11.18993  -13.69565
      H1    -5.42765   11.16804  -13.43288
       H   -10.93442   10.20602   -9.70228
       O   -10.37418    9.42871   -9.46217
      H1    -9.51342    9.71462   -9.86322
       H    -9.62224    2.51051  -16.98999
       O    -8.85408    3.01256  -17.27418
      H1    -9.19470    3.93109  -17.30669
       H    -6.92496    3.67591   -8.83930
       O    -7.20784    2.71401   -8.96305
      H1    -8.04646    2.74955   -9.45177
       H    -4.57087   10.92609  -10.97202
       O    -4.52586   10.16471  -11.49620
      H1    -4.60414    9.42765  -10.86626
       H    -2.34206    7.89068  -11.59458
       O    -2.57923    7.19436  -11.03302
      H1    -3.15847    7.58679  -10.32325
       H   -10.69168    5.89270  -17.97780
       O   -10.00565    5.55113  -17.38087
      H1    -9.25574    6.08334  -17.69601
       H    -5.67839    8.67774  -18.90042
       O    -4.85333    8.52568  -18.44073
      H1    -4.18716    8.93865  -19.02283
       H   -10.97794    5.24894  -15.52631
       O   -11.15549    5.24630  -14.59597
      H1   -11.54636    4.37490  -14.48821
       H    -0.39225    3.77846  -14.24017
       O    -0.60320    3.15005  -13.53805
      H1    -1.35617    2.65391  -13.77631
       H    -2.50881    0.26737   -8.75657
       O    -3.30343    0.77356   -8.73924
      H1    -3.41059    0.94495   -9.69634
       H   -13.48408    2.22764  -14.44933
       O   -13.00405    2.89761  -14.98886
      H1   -12.26809    2.32386  -15.22246
       H    -5.48881    1.64421  -11.54283
       O    -5.35801    1.51623  -10.60897
      H1    -6.08306    2.04803  -10.26661
       H    -2.69385    5.51355  -15.27434
       O    -2.39823    5.28423  -16.15586
      H1    -1.76220    5.94628  -16.40983
       H    -5.26671    2.45746  -18.12468
       O    -4.60823    1.90584  -18.58624
      H1    -5.06805    1.88533  -19.47137

