180
frame 5 | Written by MDAnalysis XYZWriter (release 2.4.3)
       H    -1.17865   15.13172   -1.88812
       O    -1.67593   15.50810   -1.16237
      H1    -0.99637   15.91575   -0.59895
       H    -4.89638   17.91933   -8.95898
       O    -3.99360   17.97589   -8.75743
      H1    -4.07862   18.11744   -7.80167
       H    -2.90867   12.87242   -7.43969
       O    -2.69878   11.96584   -7.69969
      H1    -1.81980   11.97753   -8.22807
       H    -4.24169   16.26150   -4.83640
       O    -3.71575   15.44894   -4.62316
      H1    -4.25678   15.13761   -3.90584
       H    -0.10811   11.07081   -0.37121
       O     0.85363   11.05860   -0.45124
      H1     1.04234   11.18460   -1.40869
       H    -5.91532   15.64170    3.99611
       O    -5.33783   16.10822    4.64990
      H1    -5.67093   17.06210    4.63140
       H    -5.58389   12.13163   -6.70388
       O    -5.14124   13.00964   -6.66853
      H1    -5.74946   13.55113   -6.16734
       H     1.92653   15.42371   -2.16860
       O     2.33686   16.23120   -1.89861
      H1     1.65357   16.86359   -2.11440
       H    -6.43540   17.95254   -5.14574
       O    -6.07231   17.22948   -4.63769
      H1    -6.18485   16.42176   -5.12640
       H     2.28499   18.99567   -5.07534
       O     1.34789   19.12767   -4.86175
      H1     0.87531   18.85846   -5.66235
       H    -0.03644   18.02172   -0.53849
       O    -0.24649   17.72124    0.34044
      H1    -1.16989   18.05147    0.40767
       H     2.85552   14.39528    1.29132
       O     2.65534   13.72942    1.96774
      H1     3.07270   13.95690    2.84450
       H    -6.27513   18.02399   -1.23781
       O    -6.40725   18.51473   -0.43816
      H1    -5.77973   19.23168   -0.46630
       H    -9.03278   15.11743    0.11608
       O    -8.63820   16.02319    0.19875
      H1    -8.22260   16.14284   -0.68382
       H    -3.48498   15.02161   -0.28693
       O    -4.34380   14.71116   -0.10618
      H1    -4.27061   13.76650    0.01199
       H    -3.71072   17.73592    0.83616
       O    -2.83823   18.15273    0.59904
      H1    -3.03119   18.28165   -0.35670
       H    -8.44615   16.01512   -2.59015
       O    -7.88518   16.79595   -2.51199
      H1    -7.30243   16.69284   -3.30502
       H    -1.22260   15.93349   -5.36043
       O    -1.07446   16.87437   -5.14909
      H1    -0.65032   17.31782   -5.88314
       H    -7.21518   13.30346    2.34788
       O    -7.39643   12.62711    1.74932
      H1    -6.96257   11.93401    2.23256
       H    -6.40237   14.06997   -2.05653
       O    -5.59894   14.39932   -2.53270
      H1    -4.81351   14.45447   -1.88679
       H     1.03731   13.73021   -6.74113
       O     0.55351   14.01469   -7.56330
      H1    -0.33332   14.37067   -7.22686
       H    -6.96523   18.43564   -8.80229
       O    -6.54471   17.56440   -8.82235
      H1    -6.72766   17.19492   -9.72049
       H     2.51300   12.93971   -1.35174
       O     2.00273   13.72201   -1.06567
      H1     1.20068   13.35170   -0.65441
       H    -5.32529   11.01143    0.49975
       O    -5.19073   11.84334    0.04417
      H1    -5.83323   12.46702    0.35269
       H     0.56495   13.75888   -2.15285
       O    -0.15200   13.84680   -2.83944
      H1    -0.61887   13.00685   -2.75427
       H     2.11959   14.49335   -4.91604
       O     1.51259   13.77030   -5.07085
      H1     0.95937   13.73955   -4.29339
       H    -2.41100   11.76138   -4.32902
       O    -1.50533   11.74819   -3.95273
      H1    -1.54007   10.94397   -3.48759
       H    -9.75840   15.82028   -6.60122
       O    -9.08813   15.41368   -6.01062
      H1    -9.67603   15.31452   -5.21426
       H    -3.06848   16.50077   -9.01253
       O    -2.63085   15.60732   -9.08852
      H1    -3.50067   15.20310   -9.19209
       H     1.59946   18.35326    1.26166
       O     2.45040   18.61090    1.67085
      H1     3.12379   18.29224    1.05096
       H    -2.39088   15.33817   -7.35648
       O    -2.08555   14.80777   -6.59607
      H1    -2.73635   15.13972   -5.92987
       H    -3.26180   15.88178    4.25547
       O    -2.71117   16.29514    3.56159
      H1    -3.41882   16.61065    2.95622
       H    -8.65623   11.82228   -4.05824
       O    -7.79981   12.25382   -3.90383
      H1    -7.30832   11.50305   -3.50672
       H    -9.32922   19.45465   -1.17854
       O    -9.55077   18.83484   -0.46441
      H1    -8.63506   18.60555   -0.16175
       H    -5.40446   13.24226   -9.86483
       O    -5.36738   14.05165   -9.33613
      H1    -5.32348   13.76578   -8.43571
       H    -7.53336   14.79814   -5.35985
       O    -6.63078   14.59951   -5.12148
      H1    -6.55846   14.27890   -4.22416
       H   -10.61827   14.31870   -3.47186
       O   -10.22159   15.19068   -3.50781
      H1   -10.86265   15.80036   -3.10284
       H    -8.13818   15.56890    3.00817
       O    -7.24197   15.25494    2.81137
      H1    -7.21078   15.41112    1.85655
       H    -3.62015   17.51152   -3.02355
       O    -3.31347   17.96684   -2.19623
      H1    -2.71184   17.21846   -1.93025
       H    -7.26240   13.94016   -8.14454
       O    -8.05435   13.39013   -7.96587
      H1    -8.43334   13.86996   -7.22066
       H    -2.44988    9.32970   -1.30292
       O    -2.66019   10.22762   -1.63079
      H1    -2.45520   10.81160   -0.87439
       H     3.48486   15.80443   -0.61157
       O     3.92582   15.65825    0.25850
      H1     4.83414   15.71257   -0.06834
       H    -5.51359   10.97783   -1.70138
       O    -6.08176   10.82076   -2.45555
      H1    -5.63183   10.09572   -2.83230
       H    -5.09017   11.58768   -4.01647
       O    -4.30057   11.46276   -4.52697
      H1    -4.49960   12.04968   -5.24589
       H    -2.36814   17.92488    6.22982
       O    -1.62234   18.07152    5.59469
      H1    -1.88135   17.52776    4.86199
       H    -2.48707   11.57287    1.07494
       O    -1.69370   11.79373    0.55011
      H1    -1.21844   12.37983    1.13865
       H    -3.32573   19.41181   -5.37369
       O    -3.72998   19.21232   -6.25483
      H1    -4.72675   19.35532   -6.11502
       H    -0.14660   17.17198   -3.21214
       O     0.45754   17.77031   -2.81257
      H1     0.80686   18.25020   -3.59553
       H    -5.61412   17.29338    1.36531
       O    -4.90624   16.70088    1.63795
      H1    -4.80575   15.95512    1.02200
       H     0.55123   18.24068    3.71771
       O     0.46573   19.03222    4.25940
      H1    -0.13959   18.72196    4.93988
       H    -9.04591   13.41088   -1.16383
       O    -8.30988   13.85453   -1.63094
      H1    -8.23754   13.42085   -2.48162
       H     3.40855   16.44586   -3.78566
       O     3.78260   16.25267   -4.66115
      H1     3.68272   17.08373   -5.17902
       H    -0.26895   14.65158    2.57342
       O     0.08698   13.96428    1.98388
      H1     1.05143   14.08345    2.03842
       H     0.14388   19.40550   -7.68804
       O    -0.05306   18.62105   -7.08516
      H1     0.26720   17.94331   -7.76028
       H   -12.23122   17.59662   -0.04479
       O   -11.51040   16.99933   -0.29726
      H1   -10.71801   17.49323   -0.22742
       H     1.27535   15.56963   -7.84002
       O     1.59932   16.47135   -8.17773
      H1     1.61920   16.23246   -9.10590
       H    -0.20822   16.92986    1.82282
       O    -0.23727   16.64499    2.77436
      H1    -1.17869   16.63813    2.97344
       H    -0.18372   11.32914   -6.85236
       O     0.05140   10.94904   -5.98772
      H1    -0.63469   11.32940   -5.39823
       H    -5.97848   19.17423    3.85095
       O    -6.50486   18.55953    4.37243
      H1    -7.39325   18.50920    3.97713
       H    -8.83454   17.17676   -5.59206
       O    -8.69847   18.15329   -5.45752
      H1    -9.13497   18.51727   -6.23486

