180
frame 10 | Written by MDAnalysis XYZWriter (release 2.4.3)
       H     3.66454  -11.36467   18.60494
       O     3.69430  -10.47224   18.92294
      H1     3.19808  -10.53541   19.78137
       H    12.60129  -18.14272   16.68229
       O    12.64307  -17.36847   16.11571
      H1    13.65383  -17.34752   15.91338
       H    10.17898  -14.61608   15.28585
       O     9.88779  -15.41088   15.79297
      H1     9.37240  -15.00046   16.53071
       H     3.74299  -16.78190   16.57068
       O     3.75557  -17.53581   15.97622
      H1     3.43392  -17.16551   15.11640
       H    11.18618  -14.38084   18.12653
       O    10.60126  -13.97598   18.78616
      H1    10.93128  -14.21389   19.62281
       H    10.18268   -3.75023   14.26224
       O    10.01451   -4.50969   14.87393
      H1    10.24444   -4.14012   15.73337
       H    11.62314   -5.52500   14.02678
       O    12.32780   -6.20520   13.91038
      H1    12.00065   -6.88482   14.48095
       H    14.61450  -12.04043   17.83582
       O    14.20370  -11.89985   16.96795
      H1    14.93941  -12.00157   16.38075
       H    17.79101  -13.95330   17.88046
       O    16.91218  -13.68619   18.10495
      H1    16.83657  -12.88101   17.58190
       H     6.31136   -5.70740   16.92018
       O     5.70277   -6.46121   17.27479
      H1     4.98331   -6.33149   16.60447
       H    13.57704  -11.94311   12.46913
       O    14.06085  -11.85258   13.35042
      H1    14.35722  -12.72217   13.65130
       H     6.76875  -13.86126   13.82570
       O     7.06396  -13.57614   13.01134
      H1     7.20875  -14.31254   12.45991
       H     4.45041   -8.64410   12.33736
       O     5.22969   -9.19958   12.30822
      H1     5.94084   -8.52122   12.40851
       H    15.79088  -16.87294   14.51994
       O    15.26665  -16.83076   15.35229
      H1    15.98353  -16.97736   15.97834
       H     6.30819   -7.85148   16.42584
       O     6.60132   -8.54911   15.78209
      H1     6.42480   -9.42397   16.11889
       H     8.25684   -7.88816   16.70720
       O     9.20224   -7.86228   16.75768
      H1     9.31590   -7.73508   17.72510
       H     8.09515   -4.91569   15.89559
       O     7.35266   -4.54355   16.44217
      H1     7.81783   -4.53230   17.30265
       H    10.98547  -15.12124   12.10131
       O    11.89304  -15.21361   12.46617
      H1    12.35210  -14.71451   11.66479
       H    10.22421   -5.76801   11.35344
       O     9.51178   -6.30874   11.67801
      H1     9.94913   -7.18728   11.63790
       H    17.51194   -9.05159   17.57705
       O    16.85118   -9.74919   17.85890
      H1    16.13782   -9.34578   18.34758
       H    13.43629  -15.14973   14.54951
       O    13.84162  -14.30510   14.85207
      H1    13.31765  -13.56507   14.52322
       H    15.56137   -7.42076   14.01764
       O    15.76805   -7.65357   13.10340
      H1    16.31622   -6.86572   12.87024
       H    17.17398  -17.36049   18.69084
       O    17.57853  -17.04163   19.50207
      H1    17.13693  -16.19833   19.70149
       H     8.00485  -10.76152   12.64988
       O     7.70632  -10.40302   11.84501
      H1     6.78731  -10.25656   11.97628
       H    10.32397  -12.92397   13.89674
       O    11.06553  -13.46839   14.28391
      H1    11.21330  -13.94332   13.43515
       H     8.76904  -11.91890   17.42282
       O     8.20924  -12.35172   16.78354
      H1     7.37176  -11.91469   16.89913
       H     3.42753  -13.50142   19.17566
       O     2.81860  -13.03006   18.56903
      H1     2.12030  -12.74094   19.18045
       H     7.26659  -18.70990   17.07508
       O     7.53452  -18.03565   16.47481
      H1     6.92721  -17.29438   16.57744
       H     2.73532   -9.76984   17.47091
       O     2.20241   -9.41964   16.70787
      H1     2.69148   -9.92291   16.05400
       H     4.85844  -10.82839   15.92179
       O     5.60190  -11.11844   16.44049
      H1     5.29916  -10.91651   17.36695
       H    11.32471   -3.37644   17.15228
       O    10.73229   -4.04826   17.54150
      H1    11.32328   -4.71262   17.87461
       H     4.51204  -10.48476   13.69969
       O     3.89568  -10.74624   14.43139
      H1     3.72410  -11.68369   14.23324
       H     3.08088  -14.50260   17.31512
       O     2.78385  -14.89826   16.44982
      H1     1.96881  -15.41664   16.70960
       H    16.97820  -11.82719   14.99580
       O    16.73410  -11.85738   15.91933
      H1    16.85798  -10.98197   16.28314
       H     9.19870  -15.38241   11.01193
       O     9.28333  -14.76206   11.71915
      H1     8.78662  -15.11704   12.45250
       H    16.12606  -11.28560   13.30146
       O    17.02505  -11.11815   13.04196
      H1    17.11193  -11.47787   12.11721
       H    11.29129  -18.36170   15.12122
       O    11.13138  -19.18589   14.66597
      H1    10.31361  -18.88022   14.24096
       H    10.73826   -8.25156   15.55929
       O    11.67272   -8.36064   15.67040
      H1    11.84149   -9.08137   15.00169
       H     8.65949  -12.09245   14.92109
       O     8.74800  -11.80098   13.98765
      H1     8.24154  -12.44555   13.48492
       H    11.05475   -9.57841   12.07716
       O    10.43865   -9.42352   11.29823
      H1     9.63595   -9.88448   11.48177
       H     7.10219   -5.78231   19.59355
       O     7.93754   -5.51739   19.16175
      H1     8.12170   -4.64186   19.57806
       H     6.07114  -13.37997   19.32463
       O     6.16824  -12.50195   18.96724
      H1     7.06624  -12.65878   18.73251
       H    12.11078   -9.48800   17.13121
       O    12.22130  -10.09738   17.86229
      H1    12.98310  -10.65185   17.47369
       H    16.97705  -14.17883   15.92177
       O    16.91131  -14.62991   15.05922
      H1    15.95197  -14.78748   15.08850
       H    13.12478  -10.51731   11.01031
       O    12.65774  -11.34703   10.71512
      H1    11.82034  -10.92857   10.57423
       H     3.85093  -16.16747   18.55942
       O     3.01281  -16.16404   19.05025
      H1     2.31752  -16.17641   18.40467
       H    14.49110   -6.24042   15.48058
       O    15.15685   -6.92834   15.62841
      H1    14.96865   -7.36513   16.47461
       H    10.31227  -10.57449   18.05392
       O     9.74616  -11.20294   18.61739
      H1    10.37262  -11.92280   18.81319
       H    12.69090  -10.47570   13.62352
       O    11.82523  -10.12883   13.53825
      H1    11.25816  -10.90653   13.64395
       H     6.51787  -16.58856   13.75768
       O     5.55433  -16.87467   13.89379
      H1     5.52757  -16.98934   14.92072
       H     8.06339  -15.88833   19.30016
       O     8.08716  -15.28117   18.52409
      H1     8.92782  -14.66676   18.64073
       H     4.70757  -14.02186   14.77651
       O     5.50356  -13.79113   15.29158
      H1     5.26593  -12.96406   15.71695
       H     3.25407   -5.92177   18.89642
       O     3.91310   -5.20188   19.02497
      H1     4.60731   -5.55726   18.42199
       H    14.76498   -9.79246   20.09446
       O    14.53237   -9.04335   19.41290
      H1    13.78321   -9.41101   18.88759
       H    14.14343  -15.44141   18.26035
       O    14.91024  -15.47816   18.90921
      H1    15.55952  -14.88498   18.48590
       H    12.73925  -16.00739   16.85305
       O    12.76742  -15.18264   17.43653
      H1    12.73573  -14.54662   16.71891
       H     6.39303  -15.43598   17.76611
       O     5.48400  -15.47505   17.54966
      H1     5.43537  -14.78404   16.81238
       H    10.86357  -16.97774   17.25714
       O    10.44752  -17.57450   17.90089
      H1     9.57835  -17.16358   17.89179
       H     8.20965   -7.09504   13.56435
       O     7.23560   -7.07173   13.42926
      H1     7.02770   -7.59318   14.27266
       H     8.71665  -16.16399   14.53170
       O     8.07222  -16.30223   13.75055
      H1     8.28472  -17.22842   13.49345

