180
frame 4 | Written by MDAnalysis XYZWriter (release 2.4.3)
       H     8.06246  -15.86873    4.14010
       O     8.11425  -15.16633    4.76909
      H1     9.05414  -14.85289    4.53281
       H    11.90750  -15.92912   16.03557
       O    11.69209  -16.03229   17.00874
      H1    10.97228  -15.43180   17.11226
       H     9.10484  -14.52756   16.21258
       O     9.09792  -14.87698   17.13545
      H1     9.12254  -14.08167   17.73622
       H     4.38178  -10.67574   12.05741
       O     3.73526   -9.97960   11.91257
      H1     2.90238  -10.41065   12.06652
       H     6.50528  -18.97050    6.01560
       O     6.77297  -18.54926    6.87216
      H1     6.74807  -19.25754    7.48702
       H     2.91184  -17.38824   15.96696
       O     2.16352  -17.97686   15.94918
      H1     2.29918  -18.14485   14.96232
       H    10.23172  -15.91105    7.17099
       O     9.28761  -15.99116    7.12928
      H1     9.11235  -15.51458    6.33225
       H     2.33038  -13.67656    6.94954
       O     1.62383  -13.03878    7.11330
      H1     1.15628  -13.22433    6.25299
       H     7.86751  -18.09795   13.16586
       O     7.72857  -17.82969   14.11536
      H1     6.91823  -18.28024   14.37846
       H    -0.20686  -15.45797    8.41903
       O    -0.25279  -15.07293    7.49788
      H1     0.45303  -14.44285    7.41756
       H     3.00044  -12.15426    8.70605
       O     3.06870  -12.04283    9.65801
      H1     3.62153  -11.23171    9.80904
       H     1.09838  -18.73647   10.21039
       O     0.68944  -18.62444   11.08347
      H1    -0.24300  -18.87766   10.95300
       H     0.36649  -16.59782    6.72329
       O     0.49061  -17.52527    6.44582
      H1     0.73595  -17.48397    5.50360
       H     2.68383  -17.64469   13.08017
       O     2.67855  -18.58146   13.37195
      H1     1.97213  -18.88787   12.77470
       H     7.08525  -10.05993    7.39081
       O     6.22617   -9.90095    7.00566
      H1     6.10150  -10.82341    6.56916
       H     5.55495  -11.93611   13.29068
       O     5.64819  -11.74158   12.32739
      H1     5.33314  -12.60618   11.96094
       H     4.57446  -19.05558   12.55413
       O     5.49048  -19.05118   12.09091
      H1     5.36080  -19.75855   11.46089
       H    10.52351  -15.79692   11.54757
       O    11.06732  -15.45284   12.37463
      H1    11.74128  -14.88356   11.94339
       H     5.04865  -18.10800    7.72899
       O     4.34123  -17.53559    8.07308
      H1     4.87800  -17.00533    8.68535
       H    11.35346  -13.94991   14.59193
       O    12.21476  -13.49399   14.57597
      H1    12.62601  -13.71386   15.40890
       H     3.37622  -17.79649    4.94695
       O     2.84809  -17.00125    4.69003
      H1     2.95549  -16.33068    5.35006
       H     8.91125   -9.99623   11.32691
       O     8.39396   -9.14817   11.62894
      H1     7.49204   -9.35113   11.28913
       H     9.08622  -13.50548   14.01641
       O     9.24203  -14.38867   14.35689
      H1     9.71317  -14.81309   13.63506
       H     5.01193  -17.79318   16.09956
       O     5.45759  -18.59645   15.76243
      H1     5.85876  -18.90789   16.57468
       H     0.78139  -16.51050   15.94655
       O     0.64226  -15.60532   16.24424
      H1    -0.14851  -15.66030   16.81528
       H    -1.16187  -16.17084   10.32966
       O    -0.19681  -16.10563   10.30841
      H1     0.05147  -16.98759   10.69513
       H     5.78628  -19.25861   18.79460
       O     5.81300  -18.29675   18.53349
      H1     4.97169  -18.19178   18.13943
       H     7.33084  -13.45863    5.94518
       O     6.96290  -12.51026    5.92660
      H1     7.59743  -12.07635    5.32382
       H     2.64917  -12.07045   14.19957
       O     2.90229  -11.81240   15.09179
      H1     2.20061  -12.25880   15.59750
       H     4.98040  -15.66611    2.11276
       O     5.32573  -15.68285    3.01424
      H1     4.43297  -15.86471    3.40187
       H    13.31806  -13.79240   10.68351
       O    13.54120  -14.69674   11.02707
      H1    14.20643  -14.51412   11.69457
       H     8.88188  -18.90568   10.88102
       O     8.48567  -18.10614   11.23586
      H1     7.75073  -18.04728   10.59629
       H     8.11755  -11.55646    6.99150
       O     8.72561  -11.16106    7.62464
      H1     9.04719  -10.42027    7.05464
       H     0.65689  -14.13756   15.30469
       O     0.62868  -13.30458   14.77945
      H1     0.57961  -13.66811   13.85616
       H     5.02443  -14.29341   10.72542
       O     4.37212  -13.84969   11.25006
      H1     4.02067  -13.18726   10.62433
       H     7.99534  -15.05887   10.81919
       O     7.09219  -14.73297   10.72261
      H1     6.91535  -14.50730   11.66455
       H    10.35104  -18.54226   15.70723
       O     9.67183  -19.19592   15.47923
      H1     9.03791  -18.56341   15.03632
       H     1.58655  -12.11724   11.26569
       O     1.75736  -12.06059   12.26836
      H1     0.88439  -12.51143   12.45016
       H     8.80464  -11.15630   13.74075
       O     8.45927  -11.83013   13.12118
      H1     7.55228  -11.49741   13.07850
       H    13.03673  -16.46754    8.05731
       O    12.12756  -16.72994    7.95694
      H1    11.99810  -17.06928    8.83287
       H    12.31973  -19.22450   10.57833
       O    11.57837  -18.63360   10.35780
      H1    11.31623  -18.33205   11.21350
       H     6.48126  -16.97741    3.23147
       O     7.36572  -17.39913    3.31922
      H1     7.49397  -17.94711    2.50754
       H     2.91123  -18.49907    8.23428
       O     2.17822  -19.09890    8.36229
      H1     1.56070  -18.69910    7.71739
       H     4.52630  -15.36700    7.01969
       O     3.87552  -14.67111    6.74859
      H1     4.39940  -13.88299    6.82247
       H    11.17545  -16.84949    3.06430
       O    11.02238  -16.53834    3.97502
      H1    11.02624  -17.33377    4.50592
       H     8.95260  -11.66016   11.38902
       O     9.51118  -11.47929   10.57885
      H1     8.92041  -11.81190    9.92319
       H    -0.46218  -12.38852    9.31284
       O     0.17087  -11.69345    9.13344
      H1     0.77574  -12.14067    8.48932
       H     5.05947  -15.58073   16.61486
       O     4.30032  -16.13170   16.72623
      H1     3.68021  -15.50134   17.12347
       H     5.98555  -17.78711   10.95307
       O     6.27235  -17.38856   10.05501
      H1     6.48001  -16.46742   10.47002
       H    10.64212  -19.62745    6.36436
       O    11.23005  -19.65788    7.10034
      H1    11.58179  -18.72751    7.00606
       H     9.37369  -16.71021   10.08666
       O     9.56469  -15.78323    9.87988
      H1     9.39828  -15.77006    8.92179
       H     4.61840  -15.70600   13.15420
       O     3.66283  -15.90535   13.06311
      H1     3.47284  -15.25899   12.39373
       H     4.60060  -11.93978   15.25285
       O     5.54232  -12.05084   15.13477
      H1     5.89414  -11.24942   15.51788
       H     7.39690  -15.60809    7.78897
       O     6.60258  -15.03335    7.82397
      H1     6.86493  -14.49504    8.56787
       H     7.19993  -14.76433   16.49074
       O     6.42576  -14.61720   15.94334
      H1     6.26311  -13.68409   15.93621
       H     8.16406  -16.47686   17.61719
       O     8.18208  -17.03521   18.45559
      H1     7.37374  -17.52138   18.38348
       H    -0.83915  -14.85653   12.50781
       O    -0.21778  -14.12239   12.30876
      H1     0.24193  -14.46570   11.52759
       H     6.29618  -15.18549   14.21743
       O     6.42363  -15.59318   13.39348
      H1     6.92140  -16.40364   13.60908
       H     8.92293  -19.32543    4.52421
       O     9.07368  -19.33689    5.45932
      H1     8.34582  -18.88298    5.91429
       H    11.71799  -16.96600   13.76703
       O    12.15020  -17.54276   14.42915
      H1    12.14684  -18.46076   14.06494

