180
frame 4 | Written by MDAnalysis XYZWriter (release 2.4.3)
       H     0.45361    5.94375    7.02754
       O     0.70874    5.01637    6.77986
      H1     1.35243    5.08034    6.05932
       H    -4.49317    6.55413   10.74592
       O    -3.68022    6.76469   10.22699
      H1    -4.00360    7.45800    9.63611
       H    -2.51849   15.64470    5.90667
       O    -2.06545   14.99041    5.36751
      H1    -1.24434   14.69905    5.88443
       H    -0.82250   12.01137   11.87972
       O    -0.53778   11.58336   11.08911
      H1     0.18530   11.06649   11.38177
       H    -3.30121   11.82926   12.32717
       O    -2.51784   12.20258   12.80738
      H1    -2.42650   13.17954   12.64246
       H     2.35096   11.09093   14.13008
       O     2.34156   11.13076   13.18069
      H1     2.33792   10.20131   12.90548
       H     3.88579   11.92723   12.60599
       O     4.37039   12.38992   11.91472
      H1     4.18152   11.74436   11.22272
       H     3.94085    8.57409   10.02380
       O     3.77365    8.97773   10.95261
      H1     3.90653    8.11338   11.44173
       H    -1.91735    4.64308   10.24603
       O    -1.99546    3.84394    9.67318
      H1    -2.62149    4.16628    8.95395
       H    -3.01597   16.70243   10.08929
       O    -3.49194   17.09300   10.83102
      H1    -2.78077   17.49056   11.32688
       H    -6.55687    7.98443    7.55506
       O    -6.12453    8.82825    7.35586
      H1    -6.77756    9.44671    7.72683
       H    -0.31578    9.91129    5.56960
       O    -0.91963    9.28446    5.14416
      H1    -0.26762    8.78930    4.70440
       H    -1.21717   11.60134    8.07871
       O    -2.08277   11.62308    8.62421
      H1    -1.71031   11.47375    9.50550
       H    -4.62831    4.20595    7.48511
       O    -3.81532    4.63800    7.79519
      H1    -4.17138    5.33336    8.33048
       H    -3.77221   13.34659    5.37220
       O    -4.27006   12.54279    5.57144
      H1    -4.70348   12.84856    6.36135
       H    -6.77559   17.57211    6.88852
       O    -5.88591   17.12303    6.92446
      H1    -5.46853   17.35416    6.12857
       H    -6.85500   16.01195   11.90643
       O    -6.66420   15.13051   12.28574
      H1    -5.81503   15.24784   12.75796
       H    -9.21122   10.97473    8.44705
       O    -8.62539   10.22330    8.22238
      H1    -9.45238    9.57368    8.19723
       H     0.49670   10.62980    1.41909
       O     0.73411   10.08088    2.18617
      H1     0.21672    9.21571    2.09269
       H    -2.97291    8.46048    2.64869
       O    -3.80660    8.96064    2.79167
      H1    -3.45513    9.85971    2.77610
       H    -0.07720   12.88743    2.87589
       O     0.01925   12.69475    3.86216
      H1    -0.56692   11.95074    3.94341
       H    -8.45107   12.13258   11.75699
       O    -8.83008   12.51923   12.52042
      H1    -9.26046   11.68610   12.78569
       H    -5.30948    6.83883    4.52093
       O    -5.40518    5.87992    4.52600
      H1    -5.58084    5.65445    3.59200
       H    -7.04038   15.51019    9.24431
       O    -6.69494   15.12276    8.46343
      H1    -6.27153   15.86761    8.02785
       H     1.44319   15.22478    5.84779
       O     0.73507   14.59469    6.05489
      H1     0.67555   14.07525    5.23959
       H     0.04164    9.93339    7.34658
       O     0.08144   10.91669    7.08010
      H1     1.02691   11.04869    7.15182
       H    -6.50513    8.87179    5.71308
       O    -6.54695    8.64440    4.73252
      H1    -6.33827    9.46323    4.33779
       H    -0.66792   18.28749   11.96056
       O    -1.35558   17.67444   12.26265
      H1    -1.50440   17.97893   13.16128
       H    -1.85087    7.33407   10.76641
       O    -0.93342    7.04615   10.82940
      H1    -0.49218    7.70445   10.28325
       H    -7.90265   11.05420    9.92201
       O    -7.43765   10.87216   10.77364
      H1    -6.82190   11.58146   10.84966
       H    -2.38328   15.27741    3.71515
       O    -2.24239   15.68902    2.77453
      H1    -3.19768   15.81606    2.64244
       H    -4.60033   14.01719   14.45351
       O    -4.44657   14.83842   14.00013
      H1    -4.52485   15.42931   14.77155
       H     3.51808   11.73252    7.88225
       O     2.81212   11.50682    7.20336
      H1     2.70304   12.39194    6.85314
       H     1.23724   14.78019   11.39439
       O     0.91017   15.60451   11.63889
      H1    -0.03767   15.40410   11.77855
       H    -5.84676   13.52768    8.47412
       O    -5.65815   12.63526    8.04825
      H1    -5.16337   12.13804    8.70013
       H    -6.32666    9.64466   11.00661
       O    -5.70706    8.88310   10.84669
      H1    -4.93811    9.47244   10.52179
       H    -4.55813   13.69537   10.78170
       O    -5.15338   13.15924   11.30209
      H1    -5.57374   13.90035   11.77768
       H    -2.41706   13.18380    9.30624
       O    -2.47580   14.10486    9.69543
      H1    -1.83397   14.52562    9.08604
       H    -4.22776   17.59854    7.41215
       O    -3.25935   17.53613    7.34361
      H1    -2.93008   18.16779    8.00841
       H    -5.86205   12.09646    4.64869
       O    -6.78048   11.72589    4.56612
      H1    -7.20969   12.25714    5.27834
       H     2.33034   12.56556   11.36008
       O     1.89115   12.96441   10.62956
      H1     1.02101   12.60545   10.76949
       H     4.19039   10.59724    5.99727
       O     5.05202   10.13024    6.09889
      H1     4.93480    9.16062    6.18089
       H     1.40283   18.13996    9.09812
       O     0.62120   17.86820    9.70436
      H1     0.99987   17.06553   10.11043
       H    -2.02967   14.62780   11.22535
       O    -1.58167   14.82167   12.05714
      H1    -1.84945   15.79990   12.02905
       H     1.07815    8.39077    7.40516
       O     0.26042    8.54926    7.88639
      H1    -0.31927    7.91278    7.38632
       H    -0.33248   16.17154    8.40972
       O    -0.77609   15.35474    8.25519
      H1    -0.24221   14.99370    7.49486
       H    -8.02747   11.70548    6.73646
       O    -8.51654   12.49069    6.51760
      H1    -8.23753   13.10103    7.20845
       H    -3.25372    9.93281    8.56823
       O    -3.72190    9.14254    8.82074
      H1    -4.41139    8.96627    8.15573
       H     4.17496   14.30170    8.34142
       O     4.20007   14.70456    9.25437
      H1     3.43701   14.22272    9.60999
       H    -2.16278   17.78572    5.50805
       O    -1.64826   18.10137    4.76754
      H1    -1.96602   17.60606    3.98667
       H    -5.51492    7.35225   11.91938
       O    -5.55030    6.43213   12.29120
      H1    -6.35406    6.07102   11.87215
       H    -2.21131   11.51324    1.40746
       O    -1.98807   11.62761    0.48212
      H1    -1.40729   12.39505    0.46586
       H    -2.58093    8.11885    7.60607
       O    -2.04306    7.57250    6.94907
      H1    -2.05211    8.24024    6.18599
       H     0.33894    7.37484   12.07805
       O     1.03489    7.56384   12.79534
      H1     0.47087    7.39120   13.56604
       H    -2.38515   11.50624   14.57427
       O    -2.45911   11.49971   15.55719
      H1    -1.58723   10.97292   15.72666
       H     3.26741    7.90969    6.76515
       O     2.39970    8.21511    6.36688
      H1     2.68930    8.88666    5.75257
       H    -3.44640    9.77482   15.41141
       O    -3.78408    8.88730   15.40421
      H1    -4.72831    9.17582   15.65105
       H     1.50683   10.61288    3.77920
       O     2.23134   10.59121    4.43258
      H1     2.42019   11.54457    4.57807
       H    -2.92952   11.62265    4.48018
       O    -2.44210   11.09438    3.79225
      H1    -2.08736   10.33452    4.33184
       H     1.83249    8.95172   10.43096
       O     0.86944    9.21143   10.50511
      H1     0.67752    9.16795    9.60790

