180
frame 10 | Written by MDAnalysis XYZWriter (release 2.4.3)
       H     9.30525   -6.72176  -19.26607
       O     9.98034   -7.29960  -19.60779
      H1     9.82071   -8.17287  -19.16114
       H     3.17597   -0.22475  -11.66618
       O     3.15419   -0.56665  -12.55447
      H1     4.10036   -0.42584  -12.76665
       H     6.01128   -6.13949   -9.00276
       O     6.76603   -5.58957   -9.03537
      H1     6.40219   -4.86323   -9.57442
       H     8.80281   -4.06592  -11.93987
       O     8.37992   -3.22099  -11.79028
      H1     9.07717   -2.61117  -12.16719
       H     6.80255  -10.24884  -18.26116
       O     5.83676  -10.33522  -18.14471
      H1     5.60862  -10.83514  -18.95262
       H    11.90215   -4.04842  -16.65926
       O    12.36867   -3.82153  -15.78810
      H1    12.65484   -4.68306  -15.40195
       H     9.45295   -3.04197  -10.35236
       O     9.67601   -3.01783   -9.40345
      H1     8.84035   -3.07514   -8.95089
       H    13.27631   -5.56731  -11.27982
       O    12.31924   -5.77933  -11.46312
      H1    11.94688   -5.47223  -10.60936
       H     2.68057   -3.14845  -10.44124
       O     2.35526   -3.21169   -9.54356
      H1     2.85990   -2.46451   -9.17924
       H     5.49069   -0.74507  -14.34698
       O     5.56259   -0.63344  -13.37802
      H1     5.95794    0.24905  -13.20550
       H     8.23201    0.25711  -12.41574
       O     8.46243    0.57713  -13.26801
      H1     8.83884    1.45991  -13.17680
       H    10.78243  -10.75909  -10.18563
       O    11.64244  -11.24391  -10.39891
      H1    11.44621  -11.77631  -11.21465
       H    12.35541   -4.22136  -12.65951
       O    12.70049   -3.31276  -12.57882
      H1    12.32257   -3.03221  -13.44588
       H     4.54801   -7.61375  -16.70847
       O     4.13902   -8.45841  -16.90746
      H1     4.84246   -8.77533  -17.49464
       H    11.12816   -9.60121  -17.13730
       O    10.40631   -9.89241  -16.52241
      H1    10.80917  -10.68007  -16.17076
       H    11.21545   -1.20664  -15.73090
       O    10.53892   -1.28894  -16.44176
      H1     9.76955   -1.35657  -15.80392
       H     2.90655   -6.92968   -9.69588
       O     2.10048   -7.41056   -9.96345
      H1     1.53444   -7.11367   -9.25931
       H     6.14735   -0.05735  -16.36996
       O     5.20218   -0.22481  -16.13704
      H1     5.02429    0.60472  -15.64453
       H     0.33226   -7.20703  -12.43601
       O     0.61181   -6.26722  -12.30467
      H1     1.22062   -6.38956  -11.57423
       H     9.08439  -10.57222  -18.81185
       O     8.47114  -10.20322  -18.18758
      H1     8.98749  -10.29590  -17.37918
       H     3.66916   -6.33404  -14.52373
       O     4.53181   -6.66052  -14.28201
      H1     5.04226   -6.31139  -15.06787
       H     9.94365   -8.35330  -13.82744
       O     9.23636   -8.38395  -14.52092
      H1     9.60975   -8.98055  -15.24870
       H     3.74299   -2.51319  -12.64696
       O     3.72908   -3.21431  -12.01027
      H1     3.92984   -3.92466  -12.64988
       H     8.23480   -7.05334  -14.53588
       O     8.03986   -6.08426  -14.59727
      H1     7.50595   -5.94710  -13.79417
       H     7.35843  -12.03846  -13.72490
       O     7.47356  -12.45282  -14.56718
      H1     6.69235  -12.27242  -15.06932
       H     6.67986   -3.02161  -11.23861
       O     5.99883   -2.75914  -10.58751
      H1     5.21538   -2.79473  -11.11726
       H     2.86503   -8.19166  -15.29208
       O     1.92810   -8.26543  -15.01518
      H1     1.62369   -7.33660  -15.12791
       H    11.29494   -2.40813  -17.90320
       O    11.32139   -3.25877  -18.30433
      H1    10.38917   -3.25016  -18.65070
       H    10.17421   -0.44999  -12.17494
       O    10.43318   -1.39094  -12.23477
      H1    10.79369   -1.36346  -11.33512
       H    10.64392   -3.82635  -14.97647
       O     9.77908   -3.65790  -14.53836
      H1     9.33598   -4.47003  -14.77174
       H     8.02378   -7.14613   -8.61412
       O     8.62831   -7.72256   -8.10434
      H1     9.25651   -7.03857   -7.85358
       H    10.31671   -4.67865   -9.10018
       O    10.52435   -5.62536   -9.25060
      H1     9.96467   -5.78307  -10.04344
       H     9.06182   -9.11245   -9.28099
       O     9.12356  -10.06431   -9.55586
      H1     8.85971   -9.88242  -10.51682
       H     3.33878   -3.80543  -17.45595
       O     4.13144   -4.35366  -17.45538
      H1     4.22020   -4.55914  -18.41121
       H     6.67044   -8.61308  -10.60291
       O     7.34710   -8.29922  -11.20966
      H1     6.96325   -8.53889  -12.08218
       H    13.75513   -8.00368  -14.78067
       O    14.52472   -8.60926  -14.68105
      H1    14.98023   -8.19788  -13.92629
       H     5.63672  -11.70684  -16.78616
       O     5.37290  -12.51945  -16.32676
      H1     4.35239  -12.31322  -16.23498
       H    11.87025   -7.34877  -14.07175
       O    12.24666   -7.08104  -14.91273
      H1    12.08777   -7.86441  -15.41605
       H    13.43684   -8.77834  -18.12663
       O    12.60671   -8.39246  -17.79533
      H1    12.30115   -8.05474  -18.64406
       H     8.24782   -6.30182  -11.26928
       O     8.98656   -5.88331  -11.61942
      H1     9.45668   -6.57147  -12.10306
       H     5.16523   -3.21074  -15.79718
       O     5.85179   -3.33430  -15.17374
      H1     6.45903   -2.65260  -15.39139
       H    12.20507   -7.24649   -7.91884
       O    12.21047   -8.16241   -8.17780
      H1    11.23964   -8.25654   -8.31260
       H     7.23785   -4.08650   -7.93423
       O     7.58140   -3.20073   -7.59694
      H1     8.39565   -3.39488   -7.12433
       H    12.55411   -0.46588  -13.51010
       O    12.23434   -1.05224  -14.23916
      H1    11.47718   -1.53402  -13.81118
       H     7.29647    0.10535  -10.15104
       O     8.08324   -0.37983  -10.46178
      H1     7.62316   -1.25345  -10.54349
       H     5.40738   -5.72108  -13.10920
       O     6.03928   -5.02381  -12.70178
      H1     6.00106   -4.28764  -13.39751
       H     6.83419  -11.08509  -10.96855
       O     7.54621  -11.27677  -11.58792
      H1     7.80887  -12.21170  -11.36732
       H     7.04972   -6.11940  -15.82928
       O     6.38718   -5.96175  -16.53983
      H1     5.99561   -5.06376  -16.41786
       H     5.04584   -7.95426   -7.97383
       O     5.54297   -7.88173   -8.73645
      H1     5.40534   -8.79679   -9.12130
       H     5.33760   -1.28341   -9.56834
       O     4.85763   -0.47594   -9.33255
      H1     4.45266   -0.82933   -8.56284
       H     3.33026   -8.47707  -13.00621
       O     3.58103   -9.26361  -12.50973
      H1     2.73086   -9.74296  -12.57347
       H     3.08874   -1.48386  -14.86012
       O     2.86928   -2.37914  -15.08530
      H1     2.32072   -2.32881  -15.89052
       H     2.40531  -11.07748  -17.18622
       O     2.36277  -10.30439  -17.77315
      H1     2.76980   -9.61232  -17.20598
       H    11.64930   -8.85521  -12.62234
       O    11.12426   -8.05501  -12.62086
      H1    11.62261   -7.45151  -12.03756
       H    11.50858   -6.42466  -19.79148
       O    12.31326   -5.79075  -19.70382
      H1    11.93993   -5.08096  -19.15702
       H     8.04013   -1.12291  -14.44479
       O     8.04382   -1.75066  -15.25330
      H1     8.60566   -2.49207  -14.88783
       H     1.26284   -5.17550  -15.45409
       O     1.80009   -5.63018  -14.81968
      H1     1.32489   -5.53432  -13.96307
       H     2.96551  -12.35491  -11.85141
       O     3.91210  -12.02322  -11.73288
      H1     3.89173  -11.40132  -12.50192
       H     5.11614  -10.66050  -10.27331
       O     5.79500  -10.39200   -9.64929
      H1     5.69418  -11.03599   -8.90259
       H     0.02435   -2.33027  -14.23920
       O     0.43984   -2.99954  -13.67712
      H1     1.34494   -2.97675  -14.02336

