180
frame 5 | Written by MDAnalysis XYZWriter (release 2.4.3)
       H   -19.14563    1.19182   -4.13776
       O   -18.31628    1.65373   -4.24226
      H1   -17.72422    0.99088   -3.92811
       H    -7.92714    5.09828   -6.33142
       O    -7.43200    4.28013   -6.10934
      H1    -8.01078    3.68879   -5.51841
       H   -13.98691    2.21059   -6.55262
       O   -13.32633    1.53278   -6.39722
      H1   -12.54872    1.80479   -6.91636
       H   -16.57993   -4.87828   -2.20340
       O   -17.12123   -4.43036   -1.55740
      H1   -17.82665   -3.99924   -2.08804
       H    -7.41444    2.04427   -3.64685
       O    -6.63643    2.20188   -3.08175
      H1    -6.74984    1.49156   -2.38591
       H   -15.99829   -8.52016   -2.80774
       O   -15.50437   -7.91319   -2.17695
      H1   -14.98059   -7.34571   -2.81989
       H   -11.73925    3.85116   -5.69181
       O   -11.01330    4.29629   -6.13189
      H1   -10.91789    5.17263   -5.72200
       H   -12.85569    3.59415   -0.93090
       O   -12.58334    4.10938   -1.69502
      H1   -12.99538    4.96511   -1.52790
       H   -17.29156   -4.77960   -6.47059
       O   -17.48781   -5.01305   -5.58184
      H1   -18.33939   -4.64962   -5.38203
       H    -9.83939   -1.77681   -9.00685
       O    -8.98921   -2.09876   -9.21502
      H1    -8.55077   -1.26275   -9.31214
       H    -9.70121   -1.41090    2.70779
       O    -8.83040   -1.76455    2.86954
      H1    -8.27095   -1.03857    3.15184
       H    -8.17403    1.32722   -5.75319
       O    -8.56227    1.71497   -4.92917
      H1    -9.51439    1.82102   -5.05712
       H   -14.80114   -5.08524   -4.18070
       O   -15.54740   -4.45699   -3.98693
      H1   -16.28433   -4.70442   -4.63816
       H   -13.26887   -3.72233   -1.70683
       O   -12.40321   -4.01945   -1.53008
      H1   -11.92613   -3.31362   -1.01359
       H    -8.17671   -6.52791   -4.40393
       O    -8.24764   -6.08314   -3.56796
      H1    -9.24252   -5.92789   -3.45418
       H   -15.04564   -1.17938   -8.78203
       O   -14.90887   -2.02075   -9.28647
      H1   -14.77277   -1.71175  -10.18807
       H    -7.83878   -4.55016   -4.56804
       O    -7.76001   -3.91642   -5.32122
      H1    -7.06435   -4.16222   -5.92333
       H   -15.71915   -2.58483   -5.00539
       O   -15.82048   -1.71184   -5.34290
      H1   -14.96081   -1.48508   -5.73447
       H   -16.72727   -4.76077   -9.12088
       O   -16.89820   -4.09304   -8.43791
      H1   -16.21774   -3.42147   -8.63335
       H   -11.36727    1.50388    2.41088
       O   -11.57579    1.94237    1.53606
      H1   -11.06571    1.36179    0.94245
       H    -6.97762    1.44838   -7.20575
       O    -6.96254    0.50950   -6.87131
      H1    -6.17224    0.45375   -6.32906
       H   -14.10822   -0.54598    2.33725
       O   -13.84282   -0.97885    1.52984
      H1   -14.30991   -1.83349    1.61375
       H    -9.20323   -5.73075   -6.54722
       O    -8.76069   -6.56897   -6.35251
      H1    -7.92857   -6.53929   -6.89459
       H   -11.74131   -1.23276    3.75026
       O   -11.39934   -0.31799    3.61861
      H1   -10.76416   -0.05612    4.30309
       H   -16.06110   -1.27444   -0.21456
       O   -16.87941   -1.26700    0.35232
      H1   -16.54767   -1.11486    1.21556
       H    -8.07699   -6.32316   -0.06165
       O    -8.19412   -5.37185    0.21260
      H1    -7.36741   -5.14593    0.62111
       H   -15.48389    3.30462   -3.07512
       O   -14.63771    2.92759   -3.10137
      H1   -14.07630    3.52238   -2.57121
       H   -18.86330   -1.87859   -6.38732
       O   -18.54351   -2.00553   -5.47221
      H1   -17.60268   -1.83319   -5.65729
       H   -14.81918   -4.60479    1.66873
       O   -14.90628   -3.61704    1.58104
      H1   -14.79337   -3.43835    0.63861
       H   -15.47868    3.82475   -5.76332
       O   -14.89442    3.70562   -6.52948
      H1   -14.35308    4.46023   -6.69477
       H   -12.93153   -1.53740   -5.30840
       O   -13.11597   -1.29279   -6.22236
      H1   -13.10373   -0.31566   -6.13670
       H   -17.23397    1.22641   -5.68176
       O   -17.35589    0.71227   -6.55252
      H1   -16.55766    0.82468   -7.05153
       H    -6.23932   -0.89157   -2.91895
       O    -6.57279   -0.42533   -2.16584
      H1    -6.89422   -1.15413   -1.61645
       H   -11.13807    0.39392   -1.64247
       O   -11.79894    0.37427   -2.35475
      H1   -11.71230    1.18520   -2.86564
       H   -11.40791   -5.14051   -4.47021
       O   -11.08535   -5.54933   -3.61250
      H1   -11.39255   -4.94811   -2.93224
       H   -15.05716    0.97597   -9.26817
       O   -15.17239    0.52037   -8.38577
      H1   -14.25431    0.53321   -8.00712
       H   -10.00733   -0.66441   -6.33488
       O   -10.53254   -0.64241   -7.10184
      H1   -11.43491   -0.89866   -6.88727
       H   -10.71358    4.73660    2.25671
       O   -10.92621    4.68577    1.28414
      H1   -11.19659    3.74742    1.27701
       H   -11.42957   -3.04455    1.03104
       O   -11.71989   -2.27902    0.51220
      H1   -12.50778   -1.83298    0.89597
       H   -11.68641   -2.85981   -8.01448
       O   -12.04320   -2.64803   -8.89914
      H1   -12.99179   -2.44461   -8.71585
       H   -11.29010   -4.96408    1.44885
       O   -10.60009   -4.62556    2.04641
      H1    -9.84485   -4.97880    1.57491
       H    -5.71522   -1.44325   -5.01349
       O    -5.93455   -2.21665   -4.42854
      H1    -6.62638   -2.73443   -4.80779
       H    -8.04228   -2.49505   -0.09563
       O    -8.23665   -1.70842    0.35060
      H1    -8.58078   -2.04142    1.19011
       H    -7.62697    4.58884   -1.26321
       O    -8.09439    4.27876   -2.04153
      H1    -7.50989    3.65370   -2.47375
       H   -19.50882   -1.12732   -1.92303
       O   -19.34535   -1.69681   -1.19384
      H1   -18.44876   -1.45217   -0.92446
       H    -9.13541   -3.79661   -6.33067
       O    -9.80468   -4.11032   -6.96590
      H1    -9.38369   -3.89094   -7.84174
       H   -14.19219    1.50475   -0.32629
       O   -13.93294    2.17175    0.35058
      H1   -13.13857    1.79324    0.72314
       H   -12.70528    2.46108   -4.47372
       O   -11.88075    2.53842   -4.05765
      H1   -12.05625    3.29434   -3.41937
       H   -13.54382    0.17711   -1.63023
       O   -14.46064   -0.01289   -1.38732
      H1   -14.96228    0.35526   -2.18738
       H   -13.65177   -7.48538   -4.29306
       O   -13.68871   -6.68604   -3.73324
      H1   -12.82505   -6.33275   -3.67791
       H   -12.49630   -1.05898   -3.10019
       O   -12.93096   -1.77138   -3.59409
      H1   -12.71507   -2.53211   -3.13195
       H    -7.42479   -3.69205   -2.68146
       O    -7.59615   -3.52599   -1.77976
      H1    -7.82634   -4.38631   -1.42836
       H   -16.86919    0.62698    0.30968
       O   -16.74327    1.58174    0.19564
      H1   -15.83226    1.86927    0.24223
       H   -15.48114    1.28290   -3.58707
       O   -16.02099    0.48889   -3.53445
      H1   -15.72859   -0.06063   -4.31364
       H   -11.71041    1.93533   -8.62997
       O   -10.97559    2.02084   -7.99405
      H1   -10.62951    1.10926   -7.83945
       H    -9.66567    3.72943    0.56402
       O    -9.14155    3.05813    0.03513
      H1    -8.72084    3.51874   -0.75870
       H   -12.23492   -5.84914   -6.49930
       O   -12.15462   -4.99881   -6.04064
      H1   -11.51213   -4.53169   -6.51479
       H   -12.41831   -5.41902   -0.43985
       O   -12.11291   -5.95944    0.32662
      H1   -11.81686   -6.78786   -0.07113
       H   -15.78277   -3.21403   -1.17783
       O   -14.91672   -2.80337   -1.12750
      H1   -14.89165   -1.92122   -1.54147
       H    -9.39045   -0.35357   -0.03748
       O    -9.97770    0.38546   -0.12900
      H1    -9.40063    1.16175   -0.06179

