180
frame 5 | Written by MDAnalysis XYZWriter (release 2.4.3)
       H     8.19455    8.59677    1.54935
       O     8.50567    8.59503    2.50753
      H1     8.81114    9.55053    2.55382
       H     7.23195   16.36289    3.44367
       O     6.96449   15.46127    3.63328
      H1     7.81120   15.01348    3.57815
       H    -2.66301   15.80980    6.45830
       O    -2.73150   14.94437    5.92486
      H1    -1.80389   14.91363    5.56243
       H    -0.10811   11.07081   -0.37121
       O     0.85363   11.05860   -0.45124
      H1     1.04234   11.18460   -1.40869
       H     6.45063   13.39541   -1.50506
       O     6.78737   12.49440   -1.73070
      H1     6.54867   12.50777   -2.71704
       H    11.77459   17.91482    1.00685
       O    11.17375   17.24485    1.42710
      H1    11.20650   17.51300    2.33405
       H     7.83568   12.99557    1.57538
       O     8.18202   12.34859    0.97226
      H1     7.39007   11.83303    0.71980
       H     1.92653   15.42371   -2.16860
       O     2.33686   16.23120   -1.89861
      H1     1.65357   16.86359   -2.11440
       H    -0.03644   18.02172   -0.53849
       O    -0.24649   17.72124    0.34044
      H1    -1.16989   18.05147    0.40767
       H     2.85552   14.39528    1.29132
       O     2.65534   13.72942    1.96774
      H1     3.07270   13.95690    2.84450
       H     6.17952   17.70687    4.60813
       O     5.20649   17.73442    4.44111
      H1     5.18709   17.36443    3.55425
       H     0.47039   10.19508    1.19322
       O     0.69114    9.68292    2.00017
      H1     0.01171    8.99092    1.92433
       H     0.07781   12.75493    3.40941
       O     0.00118   12.38081    4.27281
      H1    -0.97888   12.27060    4.19017
       H     3.73156   11.56604   -1.69110
       O     3.45788   11.95969   -2.52818
      H1     2.96421   11.24304   -2.95389
       H    11.44314   17.46534    4.69979
       O    12.15342   18.10437    4.99854
      H1    11.67421   18.56336    5.73642
       H     5.26324   10.39694    0.25167
       O     5.82067   10.13180   -0.58333
      H1     5.97290   11.05304   -0.99038
       H     9.23702   14.97026   -0.23176
       O     9.04649   15.82545    0.16453
      H1     9.86881   15.93298    0.76037
       H     3.92141   11.40904    1.50515
       O     4.50394   11.91859    0.95767
      H1     4.05395   12.79716    0.94808
       H     2.51300   12.93971   -1.35174
       O     2.00273   13.72201   -1.06567
      H1     1.20068   13.35170   -0.65441
       H     0.81899   15.40725    6.10809
       O     0.04254   15.03865    5.72140
      H1     0.27296   14.10114    5.73322
       H     8.60514   13.47348    4.32320
       O     9.23170   13.67899    3.64216
      H1     9.67280   14.37068    4.17709
       H     0.26381   10.29257    7.33779
       O     0.09194   10.74123    6.50440
      H1     0.69896   11.51909    6.45012
       H     5.69535   11.05653    9.13974
       O     4.92438   10.42653    8.98242
      H1     4.62799   10.55685    8.09431
       H     1.59946   18.35326    1.26166
       O     2.45040   18.61090    1.67085
      H1     3.12379   18.29224    1.05096
       H     4.62815   16.76628    1.37795
       O     5.26996   17.32576    1.76989
      H1     5.73486   17.57151    0.92673
       H    10.08444   11.47133    4.32934
       O     9.76974   10.63386    4.03745
      H1    10.51808   10.04224    4.02392
       H     2.25220   13.45622    7.38152
       O     1.69979   13.08912    6.72372
      H1     2.03428   13.26981    5.79990
       H     9.16552   14.25215    7.97209
       O     9.32141   15.19853    8.16203
      H1     8.59380   15.62525    7.77840
       H     8.49035   18.58978    3.76498
       O     8.02518   17.97741    3.18542
      H1     8.00825   18.56194    2.43247
       H     8.91216   13.00519   -0.23892
       O     9.16689   13.53478   -1.03010
      H1     8.38518   13.34630   -1.58843
       H     7.13161   17.14987    6.49701
       O     7.74667   16.66540    5.87863
      H1     7.18816   16.10003    5.35566
       H     5.71126   13.91282    6.81136
       O     4.99536   14.45852    7.07635
      H1     4.49761   14.61757    6.28297
       H     9.69002   12.17894    8.56137
       O     9.03158   12.53643    7.95195
      H1     8.19896   12.36282    8.41028
       H     6.15694   17.95562    8.79510
       O     6.90613   18.07055    8.27103
      H1     7.64304   18.03355    8.91516
       H     9.37060   16.12175    5.10027
       O    10.26067   15.78188    5.23111
      H1    10.29090   15.40985    6.14198
       H     2.69972   12.41004   10.02353
       O     2.00303   12.99667    9.65607
      H1     1.10348   12.62822    9.89669
       H     7.88840   12.43220    6.28529
       O     7.38784   12.98994    5.68809
      H1     6.65218   12.48688    5.27507
       H     3.97724   10.36647    5.34152
       O     4.87716   10.65342    5.59124
      H1     5.52589   10.02927    5.21660
       H     3.48486   15.80443   -0.61157
       O     3.92582   15.65825    0.25850
      H1     4.83414   15.71257   -0.06834
       H     5.03881    8.62626    2.46328
       O     4.48976    8.99392    1.74218
      H1     3.71652    8.38962    1.73677
       H    10.27040   12.32743    1.63218
       O    11.13203   12.48978    1.28175
      H1    11.25268   13.43729    1.39998
       H     5.20639    8.81013    7.07843
       O     4.64793    8.12357    7.54981
      H1     5.01631    7.36324    7.07844
       H    -0.60647   16.73930    8.68429
       O    -0.60188   15.75225    8.65420
      H1    -0.27557   15.53052    7.78071
       H     6.65046   12.60535   10.44772
       O     6.51705   12.69376    9.46972
      H1     5.69155   13.24313    9.48305
       H     2.24535   17.33335    5.39811
       O     2.93006   16.70488    5.47207
      H1     3.75500   17.17484    5.43799
       H     4.34426   14.65405    8.79769
       O     4.19717   14.55670    9.72843
      H1     3.33833   14.05417    9.84167
       H    -2.48707   11.57287    1.07494
       O    -1.69370   11.79373    0.55011
      H1    -1.21844   12.37983    1.13865
       H     6.57226   15.09549    1.84839
       O     6.64473   14.81589    0.91884
      H1     7.56317   15.20438    0.62597
       H     3.90150   15.26072    4.69693
       O     4.15712   14.35092    4.50514
      H1     4.96129   14.39529    3.99309
       H     0.55123   18.24068    3.71771
       O     0.46573   19.03222    4.25940
      H1    -0.13959   18.72196    4.93988
       H     2.80660    8.35644    6.63555
       O     1.91969    8.12475    6.14808
      H1     1.85735    8.78078    5.43757
       H     5.18242    7.19687    4.42335
       O     4.29007    7.47774    4.71189
      H1     3.84113    6.63682    4.80170
       H     6.95701   14.69013   10.02514
       O     7.35180   15.54719   10.16698
      H1     8.10231   15.50379    9.51761
       H     4.44929   16.22189   10.19672
       O     5.03665   17.01406   10.28004
      H1     5.90800   16.65991   10.08826
       H     2.49483    9.74323    3.50841
       O     2.17617   10.25005    4.28713
      H1     1.51165   10.83209    3.89315
       H    -0.26895   14.65158    2.57342
       O     0.08698   13.96428    1.98388
      H1     1.05143   14.08345    2.03842
       H     8.02140   10.07697    5.30405
       O     7.62427   10.23143    6.15010
      H1     8.35959   10.52429    6.66930
       H    -0.20822   16.92986    1.82282
       O    -0.23727   16.64499    2.77436
      H1    -1.17869   16.63813    2.97344
       H     5.60543   11.93660    2.60505
       O     5.89268   11.63059    3.48735
      H1     5.11141   11.52528    4.04889
       H     7.31440   18.41871   -1.36389
       O     6.57256   17.84746   -1.25253
      H1     6.90493   17.05994   -1.71091

