180
frame 5 | Written by MDAnalysis XYZWriter (release 2.4.3)
       H    16.83472  -17.27266    3.68605
       O    16.35649  -17.36539    2.83035
      H1    15.47130  -17.23242    3.13696
       H     8.27747  -15.61050    5.09746
       O     8.68540  -14.93462    5.74205
      H1     9.55016  -14.72255    5.20758
       H    11.81790  -15.89187   15.67588
       O    11.35203  -16.20575   16.41159
      H1    10.45466  -15.82022   16.18809
       H     8.58503  -15.25845   15.74791
       O     8.35800  -15.61166   16.61616
      H1     8.60984  -14.85843   17.17150
       H     6.23970  -18.52483    5.94073
       O     6.60746  -18.66888    6.79311
      H1     6.55045  -19.65408    6.93963
       H    10.78286  -16.83784    7.12043
       O     9.83426  -16.85077    7.38608
      H1     9.44008  -16.22249    6.74170
       H    16.98145  -13.96253    6.35744
       O    17.21659  -13.96341    7.28917
      H1    18.18809  -13.96413    7.18024
       H     7.99770  -18.64931   12.76471
       O     7.75042  -18.30553   13.63923
      H1     6.89005  -18.72156   13.89248
       H    18.50381  -14.54845   10.20639
       O    19.24156  -13.94836   10.10091
      H1    18.76620  -13.11611   10.19394
       H    15.11305  -17.96113   14.05594
       O    14.76797  -18.05428   14.95933
      H1    13.81757  -17.91185   14.77691
       H    15.65689  -13.66014   12.81013
       O    15.91953  -14.34808   12.18526
      H1    16.44094  -13.83905   11.57159
       H    11.94979   -9.92347    9.28854
       O    11.76198  -10.36202    8.40016
      H1    10.88989  -10.70499    8.61913
       H    14.77195  -17.01913    6.13200
       O    14.96955  -17.95956    6.28731
      H1    14.37584  -18.22036    6.91016
       H    14.17184  -12.03378   12.70333
       O    14.35513  -12.53752   13.50356
      H1    13.45769  -12.89888   13.70067
       H    15.86359  -15.73198   15.65604
       O    15.47675  -15.99516   16.49038
      H1    15.06544  -16.86584   16.21763
       H    11.04197  -16.04115   11.59139
       O    10.93158  -15.52128   12.43801
      H1    11.83584  -14.97531   12.50475
       H    13.61197  -10.42410    8.17109
       O    14.43840  -10.88855    8.02966
      H1    14.92817  -10.16896    7.61838
       H     5.28828  -18.52670    7.99151
       O     4.55036  -18.37304    8.59740
      H1     4.95755  -18.46204    9.47821
       H    13.38437  -14.55863    2.12520
       O    13.47062  -15.41198    2.56211
      H1    13.64168  -16.08440    1.85030
       H    11.22310  -13.78591   14.43719
       O    12.10289  -14.08940   14.69180
      H1    12.26854  -13.69415   15.55965
       H    17.63349  -19.35584   10.12441
       O    18.20923  -18.97653    9.38609
      H1    17.73076  -18.18926    9.06149
       H     9.33824  -10.58411   10.68719
       O     9.06489   -9.65437   10.66615
      H1     8.20046   -9.65198   10.13054
       H     8.82506  -13.36953   13.80864
       O     9.22840  -14.21019   14.13484
      H1     9.62253  -14.54662   13.28317
       H     7.84254  -13.37492    6.31415
       O     7.13570  -12.70958    6.34175
      H1     7.41787  -12.14501    5.60486
       H    17.55812  -15.73836    8.24717
       O    17.39202  -15.92080    9.18739
      H1    16.45695  -15.76733    9.35211
       H    13.27820  -13.51485   10.95967
       O    13.14982  -14.43939   11.19086
      H1    14.02106  -14.69455   11.52570
       H    14.41417  -14.64585    5.75617
       O    14.68062  -15.41058    5.19711
      H1    14.06556  -15.37608    4.44835
       H     8.56334  -19.39402   10.60117
       O     8.25005  -18.54612   11.01315
      H1     7.28332  -18.51878   10.80689
       H    13.18874  -18.93403    3.72275
       O    13.45456  -18.02815    4.01298
      H1    13.99993  -18.16364    4.78504
       H    17.70701  -19.43771    5.37765
       O    17.81062  -18.61098    5.87753
      H1    16.87820  -18.42634    6.16351
       H     8.52181  -11.95541    7.56237
       O     8.91133  -11.16518    8.01357
      H1     9.28280  -10.63331    7.27029
       H     5.49255  -13.24382   10.85566
       O     4.61593  -13.41248   11.17636
      H1     4.16235  -12.82791   10.54092
       H     8.43302  -15.36965   10.55010
       O     7.68634  -14.77188   10.80323
      H1     7.34026  -15.26592   11.56634
       H    16.79031  -15.09453   13.52079
       O    17.00882  -15.71351   14.27685
      H1    17.39478  -15.04309   14.85390
       H    13.81203  -14.88436    8.35464
       O    13.93249  -15.75748    8.80766
      H1    13.62127  -15.51651    9.72532
       H    10.09649  -18.24313   15.58610
       O     9.71049  -19.07958   15.26515
      H1     8.96826  -18.73219   14.64964
       H     8.88430  -11.02422   14.27546
       O     8.61931  -11.61753   13.58307
      H1     7.77310  -11.32395   13.22277
       H    12.92354  -16.44912    7.44864
       O    12.31281  -17.02379    6.94431
      H1    12.19941  -17.64733    7.67163
       H    12.37218  -18.39341    9.79966
       O    11.51176  -18.37977    9.39585
      H1    11.12294  -17.53219    9.68200
       H    11.24594  -15.06291    4.19003
       O    11.34611  -14.28602    4.80585
      H1    11.70630  -13.60835    4.24667
       H    18.65098  -17.83415   11.96989
       O    19.36465  -17.70029   11.29167
      H1    18.92453  -18.28321   10.60718
       H     6.83984  -16.68502    3.57805
       O     7.77679  -16.78201    3.74695
      H1     8.10470  -17.04065    2.89608
       H     4.27771  -16.04308    7.61893
       O     4.08931  -15.20359    7.23687
      H1     5.01033  -14.83450    7.30619
       H    10.99598  -16.88726    2.86690
       O    11.05446  -16.89105    3.83564
      H1    11.91683  -17.29601    3.97926
       H    11.89082  -17.83567   16.94980
       O    12.08021  -18.72201   17.33388
      H1    11.41899  -18.84217   17.94567
       H     9.21748  -12.68277   11.02448
       O     9.84922  -12.17703   10.49733
      H1     9.49231  -12.35664    9.65046
       H    13.56968  -12.52691    7.27937
       O    13.72540  -13.45036    7.01130
      H1    13.07511  -13.53457    6.31409
       H    14.31042  -11.85604   10.47939
       O    13.56989  -11.87531   11.04417
      H1    12.84602  -11.46855   10.49910
       H     5.37025  -18.20796   11.76426
       O     5.56278  -17.73538   10.99645
      H1     5.08134  -16.93986   11.07907
       H     9.70023  -19.64418    6.09849
       O     9.91554  -19.86408    7.04190
      H1     9.92997  -18.98931    7.39995
       H     9.07315  -17.13174   10.24557
       O     9.59893  -16.37708    9.98607
      H1     9.60335  -16.52781    9.01252
       H     4.95404  -15.98728   12.97845
       O     4.00691  -15.96791   13.23606
      H1     3.62053  -15.27738   12.64116
       H    16.67572  -12.88525    9.38304
       O    16.85716  -12.14106    9.97930
      H1    17.49507  -11.59274    9.46226
       H    17.58490  -17.23087   14.02297
       O    17.72195  -18.11247   13.63234
      H1    18.40020  -18.38874   14.29901
       H     7.03686  -16.73303    8.22395
       O     6.63345  -15.86607    8.38771
      H1     6.91422  -15.67472    9.27648
       H    17.12940  -13.82186    3.57802
       O    16.72675  -13.53364    4.39731
      H1    16.22935  -14.30059    4.65121
       H    13.97663  -19.15628   10.10053
       O    13.72064  -18.77449   10.93771
      H1    13.18411  -19.52534   11.32296
       H     6.53129  -15.50047   13.99610
       O     6.67090  -15.79737   13.09427
      H1     7.08630  -16.69819   13.30683
       H    10.51327  -18.97034    4.07863
       O     9.55240  -19.24275    4.35968
      H1     9.14550  -18.36818    4.39235
       H    11.93230  -16.72877   13.33068
       O    12.45939  -17.48204   13.67365
      H1    11.95605  -18.29653   13.41644

