180
frame 11 | Written by MDAnalysis XYZWriter (release 2.4.3)
       H    -9.53335    9.91845  -11.28978
       O   -10.31806   10.41180  -11.59760
      H1   -10.06517   10.61963  -12.51708
       H   -15.28534    7.19458   -1.61966
       O   -15.50292    6.33409   -1.09842
      H1   -15.72942    5.71797   -1.75933
       H   -13.89109    9.20738  -11.52416
       O   -14.27863    9.20661  -10.60171
      H1   -13.69638    8.57957  -10.17925
       H    -6.01026    2.52422   -4.37250
       O    -5.74863    3.46467   -4.32534
      H1    -5.38142    3.48928   -5.20620
       H    -9.62727    7.43342  -10.08669
       O   -10.26928    6.88143  -10.51466
      H1   -10.17368    7.13315  -11.45097
       H   -13.15260    5.06519   -9.52063
       O   -13.74998    5.63227   -9.01419
      H1   -14.54719    5.03887   -9.11076
       H   -13.82772    0.84279   -6.79663
       O   -14.00155    1.55786   -7.43694
      H1   -14.22317    1.14498   -8.28540
       H   -10.44759    8.62107   -3.02654
       O   -10.44851    7.66922   -2.81169
      H1   -11.28245    7.49861   -3.26970
       H    -8.91320    2.95573   -1.20763
       O    -9.33837    2.91584   -0.35300
      H1    -8.79081    2.29669    0.08207
       H   -13.23870    4.12621   -1.46105
       O   -13.31053    3.59575   -0.69801
      H1   -14.24107    3.66583   -0.37631
       H   -11.08408    0.48164   -1.75380
       O   -11.74905    1.08378   -1.34626
      H1   -11.37065    1.93779   -1.61143
       H    -4.82680   11.83119   -7.02090
       O    -4.46118   12.67879   -6.77157
      H1    -5.13058   13.11309   -6.21804
       H    -5.03493    5.09165   -1.91992
       O    -4.36117    4.40398   -2.20933
      H1    -4.75032    4.30814   -3.12602
       H   -12.43980    6.49644   -5.58313
       O   -11.73081    6.12100   -6.12301
      H1   -11.80079    6.49416   -6.98094
       H   -15.12486   12.03039   -5.25029
       O   -15.26668   12.91029   -4.84530
      H1   -16.23921   12.92614   -4.71883
       H    -6.75919    8.86312  -11.02805
       O    -7.42101    9.31607  -10.40491
      H1    -6.89845    9.48644   -9.57283
       H   -10.02027   10.64847   -7.58817
       O    -9.58731   10.23953   -6.85468
      H1    -9.62176    9.29598   -6.96671
       H   -14.35530    7.51728   -8.28935
       O   -14.91205    7.87046   -7.58746
      H1   -15.56592    8.33721   -8.20807
       H    -7.80924    8.10161   -7.00528
       O    -6.97090    8.13568   -7.51866
      H1    -6.86612    7.24046   -7.82375
       H    -6.48640    6.67746   -1.12894
       O    -5.83865    6.67780   -1.79713
      H1    -5.18370    7.08186   -1.25549
       H   -12.89384   12.22987   -1.62656
       O   -12.34284   12.09272   -0.86395
      H1   -12.80064   11.29852   -0.50061
       H    -7.03757    9.99893   -2.07144
       O    -7.75938    9.62019   -1.50958
      H1    -7.74194   10.27509   -0.74454
       H   -11.21546   10.19972   -5.50913
       O   -12.09659   10.60224   -5.61668
      H1   -12.25956   10.70863   -6.53941
       H   -13.97416    9.91714   -2.65178
       O   -14.48469    9.50553   -1.93844
      H1   -13.82214    8.89602   -1.52692
       H   -16.08073    5.18363   -6.29547
       O   -16.56920    5.99845   -6.37553
      H1   -16.01571    6.62447   -6.86427
       H    -9.17052   14.86735   -7.16403
       O    -9.05172   13.97120   -6.94322
      H1    -9.72428   13.81122   -6.28425
       H   -14.79334   10.48642   -6.43866
       O   -15.09410   10.36615   -5.48273
      H1   -16.00738   10.13920   -5.62428
       H   -12.29349   11.00142   -8.93598
       O   -11.43087   10.55918   -8.72081
      H1   -10.97685   10.76836   -9.54331
       H    -7.00908   12.30644   -4.11276
       O    -6.12261   12.50203   -3.68094
      H1    -5.81439   11.61084   -3.93465
       H   -12.16790    3.62379   -5.77516
       O   -11.74957    3.22242   -5.04932
      H1   -11.20337    3.94110   -4.72066
       H   -15.05840    2.67307   -6.34888
       O   -15.73743    3.25041   -5.97707
      H1   -15.72678    3.24266   -4.99193
       H    -8.99852   -0.60420   -5.34031
       O    -8.96754   -0.54319   -6.31006
      H1    -9.06296    0.42450   -6.38525
       H    -5.87097    5.25985   -8.16533
       O    -6.73110    5.51731   -8.61480
      H1    -6.50575    5.64570   -9.52461
       H   -10.22976    7.33203   -5.82333
       O    -9.35800    7.70510   -5.71727
      H1    -8.96187    7.04634   -5.01166
       H    -9.70347    5.53341    0.40491
       O   -10.58148    5.18586    0.56734
      H1   -10.32270    4.28137    0.38525
       H    -9.81056    2.40506   -8.40555
       O    -9.76378    2.42447   -9.38466
      H1   -10.06683    1.56255   -9.65604
       H    -9.08966   12.72059   -9.87734
       O    -8.94702   12.27072   -9.04394
      H1    -8.95326   12.98557   -8.36017
       H    -3.48584    9.71221   -9.16719
       O    -4.32043    9.21935   -9.08193
      H1    -4.88538    9.88927   -8.65034
       H    -4.83630    9.56474   -3.68481
       O    -5.81179    9.57644   -3.44812
      H1    -6.04666    8.85326   -4.10600
       H    -7.13990    2.78291   -2.64073
       O    -8.02287    3.16710   -2.85569
      H1    -7.76512    3.81315   -3.55304
       H    -7.73027    5.26933  -11.83161
       O    -6.84867    5.37721  -11.39542
      H1    -6.50730    6.18958  -11.82606
       H    -9.01317   11.04678   -5.27152
       O    -8.57338   11.54212   -4.52709
      H1    -9.18567   11.43249   -3.77365
       H   -10.73724    3.66844   -9.82554
       O   -11.36134    4.34712  -10.23925
      H1   -10.79289    5.14147  -10.17177
       H    -9.02174    2.78020   -6.22019
       O    -9.68637    2.12803   -6.51075
      H1   -10.50397    2.38272   -6.04305
       H   -11.55361    8.73566   -8.51776
       O   -11.90887    7.86014   -8.37269
      H1   -11.69339    7.32313   -9.15907
       H    -8.45404    6.01457   -1.33158
       O    -8.04091    6.47069   -0.54830
      H1    -8.21676    7.40036   -0.77446
       H    -6.87992    3.80043   -8.74633
       O    -7.14242    2.88118   -8.66593
      H1    -8.03753    2.94625   -9.05128
       H   -12.34139    7.14171   -0.41825
       O   -12.55719    7.92167   -0.94149
      H1   -11.76806    8.04474   -1.49027
       H    -2.98861    7.12373   -7.81908
       O    -3.78291    6.96530   -7.29878
      H1    -4.34578    7.63111   -7.75301
       H   -13.98212   12.18926   -3.65083
       O   -13.29053   11.54464   -3.35810
      H1   -12.96527   11.18761   -4.27516
       H   -12.25827   13.29425   -6.94724
       O   -12.98344   13.07782   -7.60699
      H1   -12.49165   13.09074   -8.44721
       H    -4.12179    3.91406   -6.97326
       O    -4.85023    4.60293   -6.76691
      H1    -4.45054    5.49725   -6.75278
       H   -13.07614    8.89637   -5.19650
       O   -13.22950    8.06595   -4.74821
      H1   -14.20846    8.12194   -4.58855
       H   -14.20285   10.41637   -9.25656
       O   -14.19057   10.55984   -8.27905
      H1   -14.14316    9.60056   -7.96952
       H   -13.34374    4.75239   -4.20469
       O   -13.61278    4.93423   -3.29289
      H1   -14.50568    4.49111   -3.36193
       H    -8.65716    7.21154   -3.22082
       O    -8.09598    6.56427   -3.70971
      H1    -7.26361    6.65050   -3.25110
       H    -7.02442    9.97490   -7.74560
       O    -6.70003   10.81531   -8.12845
      H1    -7.52613   11.23489   -8.27695
       H   -10.93568   10.91723   -1.81245
       O   -10.32539   10.48688   -2.44928
      H1    -9.52866   10.43737   -1.95422
       H    -7.26782    4.13589   -5.61525
       O    -7.98402    4.15639   -6.31265
      H1    -7.51573    3.90886   -7.11869
       H   -11.95962   13.91235   -4.78852
       O   -11.45579   13.41182   -5.46467
      H1   -11.37489   12.54962   -4.99884

