180
frame 0 | Written by MDAnalysis XYZWriter (release 2.4.3)
       H    -0.80254   18.70238  -14.60151
       O    -0.37693   19.55021  -14.23725
      H1     0.57467   19.27115  -14.11869
       H     3.63130   16.84373  -17.15103
       O     3.80256   17.55961  -17.81110
      H1     3.09932   17.33496  -18.49708
       H    -2.61610   18.65309  -12.11193
       O    -3.46997   18.83475  -12.56885
      H1    -3.33948   18.48522  -13.47077
       H    -5.30914   18.52425   -7.80428
       O    -4.53760   18.97297   -8.03617
      H1    -4.37855   19.48845   -7.20093
       H    -1.66317   16.58858  -14.85240
       O    -0.83503   16.89896  -14.41749
      H1    -0.62458   16.18909  -13.83106
       H    -5.29360   16.60209  -17.95610
       O    -5.78925   15.97455  -18.59870
      H1    -6.64082   16.34986  -18.34808
       H   -10.33603   18.16305  -18.45438
       O   -10.39392   19.02802  -18.89284
      H1   -11.30689   18.96291  -19.25521
       H    -8.31832   13.24396  -14.16604
       O    -8.53619   12.32181  -14.37791
      H1    -9.52360   12.38753  -14.36284
       H    -4.13766   18.50266  -17.83078
       O    -4.60144   18.00445  -17.12568
      H1    -4.80073   18.75623  -16.53795
       H     7.97831   16.13239  -19.45999
       O     7.55640   16.46063  -18.61470
      H1     8.24971   16.94190  -18.21610
       H     0.83166   16.19221  -11.81975
       O     1.21137   17.12179  -11.91506
      H1     1.31308   17.15030  -12.83785
       H    -1.36148   18.75859  -17.38761
       O    -2.15741   19.37061  -17.30479
      H1    -1.81874   19.93129  -16.59563
       H    -5.75596   14.20145  -13.76127
       O    -4.80936   14.15088  -13.92115
      H1    -4.57930   13.24924  -14.13760
       H    -1.26375   10.94219  -18.95071
       O    -2.09198   11.08161  -18.47514
      H1    -2.01391   11.93934  -17.98745
       H     1.26978   13.83925  -16.52820
       O     1.23913   14.74209  -16.18394
      H1     2.19118   14.95991  -15.93872
       H    -2.24729   10.21566  -17.02712
       O    -2.41414    9.87963  -16.08697
      H1    -3.38305    9.79328  -16.13913
       H     2.24283   11.89454  -17.64047
       O     1.90286   12.12493  -16.74197
      H1     1.31580   11.28639  -16.58385
       H    -5.78996   12.74727   -9.61595
       O    -5.27031   13.30994  -10.26600
      H1    -5.69648   12.97943  -11.07623
       H    -1.35576   17.46236   -7.03369
       O    -0.77573   17.81235   -6.31600
      H1    -0.28893   18.55640   -6.65158
       H    -4.81483    9.84341  -17.74710
       O    -5.08568   10.67961  -17.36209
      H1    -6.02052   10.46787  -17.08337
       H   -12.62243   19.83739  -13.75921
       O   -12.43217   18.85438  -13.74906
      H1   -11.45851   18.74363  -13.58822
       H     1.51024   13.41891  -14.69269
       O     1.53021   12.73878  -14.05768
      H1     1.70744   12.00308  -14.63631
       H     1.46855   15.66052   -6.91072
       O     0.88273   16.00725   -7.56420
      H1     0.39408   16.65283   -7.05694
       H    -3.10827   17.82063   -8.52000
       O    -2.51646   17.11576   -8.89991
      H1    -3.23647   16.61070   -9.27039
       H    -9.45065   16.25894  -11.72339
       O    -9.39144   15.29948  -11.58145
      H1    -8.87648   15.18459  -10.75038
       H     3.00628   19.05244  -17.43138
       O     2.51275   19.83714  -17.06616
      H1     1.74423   19.71498  -17.67138
       H    -8.37298   19.54305  -15.88773
       O    -7.52008   19.46932  -15.34509
      H1    -7.55163   18.59298  -14.96029
       H    -7.72905   15.15031  -13.02673
       O    -7.43629   14.46268  -13.67861
      H1    -7.22168   14.92735  -14.49826
       H   -10.41295   15.81064  -18.31767
       O   -10.73690   16.45631  -17.69205
      H1    -9.93473   16.61127  -17.15268
       H    -7.37600   18.03319  -17.22972
       O    -7.95513   17.34079  -17.59095
      H1    -7.94884   16.60729  -16.88933
       H    -5.34344   16.24700  -10.12972
       O    -4.87910   15.85491   -9.32471
      H1    -4.89583   14.89492   -9.45633
       H     0.77091   15.15498  -17.89581
       O     0.46046   15.61304  -18.70929
      H1    -0.45644   15.45682  -18.83674
       H    -7.68851   14.40146   -8.70458
       O    -7.54238   15.29391   -9.06488
      H1    -6.59816   15.50054   -8.91152
       H    -3.03861   11.88471  -16.53089
       O    -2.70154   12.81332  -16.65105
      H1    -3.55024   13.24490  -16.75516
       H     4.48260   15.93180  -18.44831
       O     4.27909   15.02161  -18.67705
      H1     4.83019   14.81051  -19.43340
       H    -0.10883   14.18284  -12.02273
       O    -0.09160   14.60198  -12.92286
      H1    -0.00564   13.87100  -13.51196
       H    -0.69465   17.77354  -11.39095
       O    -1.40855   18.28023  -11.05816
      H1    -1.66750   17.75673  -10.27437
       H     0.31325   11.39264  -13.30583
       O     0.33281   10.43869  -13.13012
      H1    -0.51521   10.31558  -12.66687
       H     0.31120   12.78988  -10.41986
       O    -0.10696   13.64720  -10.41208
      H1    -1.02471   13.36123  -10.16796
       H    -7.01921   14.10451  -16.73919
       O    -7.81946   14.72033  -16.67973
      H1    -8.33430   14.29705  -17.37453
       H     5.14235   13.77893  -17.39797
       O     5.37064   12.90214  -16.98549
      H1     4.91573   12.91125  -16.13499
       H     3.19538   19.15749  -14.11862
       O     2.35734   19.45756  -13.71935
      H1     2.74467   19.95009  -12.96242
       H    -3.80210   10.48974  -12.74143
       O    -4.67896   10.90714  -12.97528
      H1    -4.93590   10.18778  -13.55451
       H    -8.46646   11.98541  -18.02093
       O    -8.34758   12.40365  -18.90444
      H1    -9.31898   12.67950  -19.10642
       H    -9.93524   18.99198  -12.19487
       O    -9.88421   17.99589  -12.03320
      H1   -10.66667   17.92888  -11.48511
       H     4.58853   15.78359  -15.99499
       O     3.68996   15.71593  -15.58931
      H1     3.88950   15.66581  -14.63171
       H    -3.05270   12.84219  -12.51345
       O    -2.77183   12.82972  -11.57648
      H1    -3.58096   13.11186  -11.17225
       H     0.58025    8.93678  -16.59202
       O     0.58443    9.83707  -16.26306
      H1    -0.33948    9.90829  -15.99089
       H     4.24257   17.94665  -15.46977
       O     4.59827   18.60065  -14.79345
      H1     4.97313   19.29974  -15.31299
       H     4.71992   14.68702  -10.77866
       O     5.57986   14.97594  -11.09705
      H1     5.33650   15.82893  -11.62121
       H    -6.84908   17.24954  -12.96093
       O    -7.46421   17.13284  -13.74737
      H1    -8.26080   17.59575  -13.46280
       H    -4.07004   15.93882  -14.43764
       O    -3.59605   16.76400  -14.70575
      H1    -4.07588   16.84014  -15.58888
       H    -3.34501   15.27450  -18.64743
       O    -2.55930   14.75977  -18.55285
      H1    -2.50684   14.40551  -17.66398
       H    -5.50431   14.30452  -17.90146
       O    -5.41438   13.65077  -17.18592
      H1    -5.48284   12.82334  -17.67056
       H     6.91008   15.94905  -16.94415
       O     6.32264   15.86352  -16.13904
      H1     6.28437   14.89319  -15.99300
       H     3.62153   17.15414  -12.15066
       O     4.51759   16.86612  -12.47468
      H1     4.63712   17.58255  -13.11435
       H     0.41219   16.98945  -17.71731
       O     0.25717   17.78697  -17.21689
      H1     0.18316   17.40865  -16.32164
       H    -5.89656   18.02705  -11.35253
       O    -5.58771   17.15494  -11.64653
      H1    -4.75443   17.42764  -12.05655
       H     1.59692   17.34817   -8.41097
       O     2.06014   18.05589   -8.97802
      H1     1.88148   17.65179   -9.81633
       H     3.61946   13.24504  -12.91379
       O     4.11838   14.02728  -13.10228
      H1     4.77512   14.07176  -12.41875

