180
frame 3 | Written by MDAnalysis XYZWriter (release 2.4.3)
       H     8.32565    9.73503    2.42663
       O     8.65941    9.32346    3.25477
      H1     9.42559    9.85177    3.59599
       H    15.43238    4.77422    4.09004
       O    14.96824    5.49892    4.52716
      H1    14.06797    5.20897    4.37673
       H    12.13933    2.68555    9.35367
       O    11.67321    3.43230    9.05156
      H1    12.42265    4.00622    8.81636
       H    17.04383   13.27963    4.85748
       O    17.48024   14.14372    4.79221
      H1    17.41856   14.51827    5.68861
       H    12.11626   14.51904    1.04253
       O    11.68644   14.52682    1.92918
      H1    11.71597   15.52222    2.18585
       H    14.80293   11.45142    5.12435
       O    15.40693   12.24270    5.16554
      H1    14.86487   12.80139    4.65640
       H    10.60899    9.62567   12.01077
       O     9.72473    9.95058   12.15876
      H1     9.22481    9.52264   11.45107
       H    18.32941   11.67646    2.91156
       O    17.46678   11.29649    3.17680
      H1    17.78087   10.44460    3.45861
       H    17.07518    8.19042    6.82583
       O    16.37835    7.95343    6.21645
      H1    16.31742    6.99944    6.37964
       H    10.02799    8.65646    7.43721
       O    10.52526    7.85272    7.68652
      H1    10.26400    7.81040    8.64688
       H    16.51771   10.93404    0.17565
       O    17.22284   10.44000    0.59944
      H1    17.19395   10.83397    1.45273
       H    15.93499   13.70470    1.82899
       O    16.60516   14.37768    1.99587
      H1    16.92901   14.25639    2.89301
       H    16.67067    8.88481   -0.22742
       O    16.55058    7.91404   -0.25344
      H1    17.05134    7.55633    0.51449
       H    17.65330    7.12615    2.98385
       O    17.64919    6.56975    2.16654
      H1    16.84421    6.07687    2.26891
       H    14.68464    2.74880    9.33896
       O    14.72451    3.67734    9.41064
      H1    15.06570    3.97152    8.53414
       H    13.87248   12.43010   11.64488
       O    14.04772   12.83362   10.78253
      H1    15.04298   13.01329   10.82030
       H    18.90137   14.49928    7.60166
       O    18.41790   15.22328    7.27038
      H1    19.00612   15.39358    6.49203
       H    13.96233   11.86578    2.19493
       O    14.77791   12.43400    2.02256
      H1    15.45320   11.89830    2.41844
       H    13.34404    9.76726   11.00662
       O    12.38501    9.70703   11.14885
      H1    12.09582   10.60909   10.78744
       H    12.01846    6.12705    7.96897
       O    12.84737    6.01792    8.50266
      H1    12.61707    6.63452    9.20708
       H    14.48507   12.00453    0.25597
       O    14.56310   11.64918   -0.64011
      H1    13.62696   11.19215   -0.68749
       H     8.26765   13.63866    5.12185
       O     8.94780   13.76841    4.39100
      H1     9.58599   14.34474    4.88351
       H    13.17708    7.95966   13.74651
       O    12.45486    7.50075   13.29265
      H1    12.45793    8.00723   12.46743
       H    15.18208    4.05526    1.20456
       O    15.99314    4.28221    1.58868
      H1    16.28078    3.41554    1.96031
       H    11.74760    8.08728    2.23370
       O    12.54172    8.69762    2.06991
      H1    12.50255    8.67483    1.07832
       H    11.45207    4.43084    4.81770
       O    12.33817    4.54900    4.63653
      H1    12.58352    3.69708    4.27424
       H     9.82591    5.59988    7.51314
       O     9.74446    4.82694    7.02643
      H1     9.83152    4.03524    7.61053
       H    17.72254    3.42987    6.90260
       O    17.57958    2.64197    6.39739
      H1    18.38068    2.21882    6.74928
       H     9.98465   12.07135    4.48750
       O    10.19515   11.14712    4.49785
      H1    11.01741   11.28558    4.00924
       H     7.76049    7.63747    4.24174
       O     7.67067    6.71456    4.20486
      H1     6.79399    6.65889    3.78294
       H    14.48841    6.07035    2.86331
       O    13.83189    6.21257    2.19960
      H1    13.53731    7.14607    2.28456
       H    13.56663    8.88598    5.48035
       O    14.29145    9.50922    5.71726
      H1    14.93077    8.88096    6.08447
       H    18.37821    4.09950    3.30173
       O    18.50542    4.51601    4.21094
      H1    18.47873    3.73595    4.81758
       H    10.30114    6.67343    1.75267
       O    10.42485    7.03524    2.61579
      H1     9.66147    7.53637    2.81601
       H    14.91307    6.94722   -0.39494
       O    14.18830    6.37157   -0.56788
      H1    13.82178    6.11573    0.31453
       H     9.49683   12.45448    9.30023
       O     8.73091   12.53127    8.73841
      H1     8.16315   12.07670    9.38237
       H    10.19211   15.25184    7.05613
       O    10.63398   15.28333    6.16779
      H1    11.34805   14.67758    6.42712
       H    16.43765   14.40178   11.35010
       O    16.65279   13.46598   11.23955
      H1    17.39879   13.47602   10.62002
       H    11.74377   11.65634    2.20438
       O    12.46802   11.24637    2.69417
      H1    12.37593   10.26998    2.63594
       H     7.81771   12.50560    7.03529
       O     7.03449   12.69679    6.54193
      H1     7.15637   12.22874    5.73501
       H    11.53450    3.56402    2.16519
       O    12.08303    4.09167    1.59585
      H1    12.67885    4.52832    2.19958
       H    15.00536    5.08371    6.29742
       O    15.18125    5.40302    7.20814
      H1    14.28159    5.77963    7.41789
       H     9.40327   12.44181    0.94446
       O    10.34464   12.33251    1.02543
      H1    10.62164   13.25849    1.32931
       H    11.23676    7.87914    5.99249
       O    11.67165    8.08055    5.17976
      H1    11.45496    7.30598    4.68812
       H    14.11212   16.72582    5.81477
       O    15.00991   16.31567    5.81097
      H1    14.90193   15.49781    5.23606
       H    11.57939    8.52302   -0.63030
       O    12.51922    8.69397   -0.80290
      H1    12.98262    7.92743   -0.44432
       H    10.25822    6.12089   11.09539
       O    10.01937    6.91915   10.57977
      H1     9.30261    6.53992   10.08429
       H    14.77568   15.86619    7.68335
       O    14.42894   15.33006    8.42918
      H1    14.02365   15.87267    9.12585
       H    14.33181   11.14674    8.33963
       O    13.41759   11.17774    7.97434
      H1    13.55969   10.64571    7.14270
       H    12.93063   12.65385    6.84747
       O    12.70635   13.54421    6.55895
      H1    13.36679   14.15553    6.99192
       H    12.82806   13.80999    4.71525
       O    13.44491   14.31929    4.12289
      H1    12.93385   14.39314    3.29244
       H    16.15417   12.48707    6.98384
       O    16.31164   12.47956    7.98733
      H1    15.75828   13.24185    8.26741
       H    18.56072    7.20304    8.73388
       O    18.88774    7.96759    8.23829
      H1    19.27297    7.59232    7.41792
       H    17.90462   12.56414    9.09294
       O    18.74477   12.70418    9.60249
      H1    19.24786   11.94190    9.26180
       H     9.67367   10.51799    6.50185
       O     9.06002   10.22995    7.26235
      H1     9.12181   11.03317    7.82959
       H    17.27753    5.77681   10.06386
       O    17.39165    5.80521    9.12183
      H1    16.60042    5.49380    8.77573
       H    11.17241   12.75140   10.59799
       O    11.27796   12.08790    9.92570
      H1    12.20354   12.32228    9.60373
       H     6.23181   11.29325    3.33356
       O     7.09528   11.62193    3.60522
      H1     7.58367   10.80522    3.53612
       H    17.32775    8.60371    4.70435
       O    17.66812    8.63680    3.81528
      H1    18.60422    8.61641    4.00484
       H    18.03347    8.75264   11.97582
       O    17.05273    8.52503   12.06859
      H1    16.88189    8.08120   12.91783

