180
frame 1 | Written by MDAnalysis XYZWriter (release 2.4.3)
       H    15.72931   -0.38554   11.21158
       O    16.22025    0.10747   10.52896
      H1    16.66504   -0.64486   10.08708
       H    12.03931    2.86177    9.50678
       O    12.37117    2.79240    8.63434
      H1    13.20176    3.26089    8.52271
       H    14.48751    1.12186   12.71901
       O    14.63263    0.24688   13.13458
      H1    15.28820    0.42565   13.86024
       H    15.84816    3.58395    9.19834
       O    16.02963    3.20642   10.08450
      H1    16.49425    2.37192    9.98599
       H    12.00248    1.78558   11.53895
       O    11.26471    1.66745   10.89930
      H1    11.54279    0.75679   10.55020
       H    18.07727    8.24749    7.01513
       O    17.23438    8.64159    6.66240
      H1    16.61159    7.93653    6.90709
       H    14.53312    6.78975   11.93812
       O    14.59933    5.96698   11.48168
      H1    13.83177    5.52905   11.83622
       H    13.94817    0.09013    7.88659
       O    14.89577    0.10275    7.78508
      H1    15.17780    0.00954    8.67472
       H     9.05087   -1.45868   13.31909
       O     9.60461   -1.16451   12.58802
      H1    10.37399   -0.82690   13.17424
       H    13.57369    1.07886   16.03213
       O    12.66502    1.12052   15.62525
      H1    12.13737    1.24602   16.44577
       H    15.16628    3.54618    6.86496
       O    14.90746    3.99086    7.70682
      H1    14.98068    4.90653    7.35040
       H    18.02408    6.01645   13.00388
       O    17.38830    6.21076   13.68664
      H1    17.27448    5.38489   14.16124
       H    18.13078   12.07627   12.07001
       O    18.77709   11.84098   12.79270
      H1    19.25517   11.07955   12.37559
       H    15.09431    3.35937   17.41048
       O    15.61901    4.14214   17.48594
      H1    15.08326    4.75601   16.96065
       H    17.99338   -0.73133    6.48759
       O    18.55928   -0.13668    6.96074
      H1    18.38031   -0.42636    7.88963
       H    15.86731    7.52421   15.79749
       O    15.74618    7.80016   14.86313
      H1    16.41647    7.10693   14.49146
       H    11.49013   -1.01368   11.26663
       O    11.97213   -1.27962   10.49007
      H1    12.75865   -1.70570   10.81126
       H    13.85027    6.97517   16.19796
       O    13.94742    6.05612   16.49673
      H1    13.28709    5.99921   17.16995
       H    18.03874    6.17447   17.77359
       O    18.71813    5.49358   17.71153
      H1    18.33249    4.77535   18.21239
       H    15.50225   -5.03619   12.45403
       O    15.72509   -4.84648   11.55588
      H1    16.21861   -4.03437   11.54029
       H    20.04382    6.85872   14.67038
       O    19.62360    7.72645   14.63461
      H1    18.74826    7.46992   14.35026
       H     9.52259    4.75753   11.44701
       O    10.49821    4.59147   11.48131
      H1    10.55575    3.63426   11.29591
       H    19.17813    6.97835    4.44530
       O    19.65281    6.19873    4.69195
      H1    18.95727    5.59137    4.98713
       H    16.43401   -2.05895   19.54926
       O    16.18576   -2.66817   18.87453
      H1    16.17565   -3.48113   19.42862
       H    12.47798    6.95855    9.58898
       O    13.11895    6.38358    9.10640
      H1    13.80847    6.06911    9.71754
       H    17.69184   -6.74942   13.00350
       O    17.17990   -7.21483   13.70007
      H1    16.51722   -7.53426   13.10686
       H    14.32992    8.26805   13.58529
       O    13.65273    7.86834   13.04534
      H1    13.33920    8.55663   12.47744
       H    14.78869   -2.63041   12.21941
       O    14.45609   -2.38850   11.36391
      H1    14.37211   -3.28001   10.94968
       H    17.61690    0.44921   11.55445
       O    18.33129    0.47642   12.33850
      H1    18.71124   -0.39892   12.23825
       H    17.27002    0.91757   16.60291
       O    17.47542    0.70290   17.51303
      H1    18.33115    0.26355   17.56540
       H    14.00568    2.79949   12.79679
       O    14.02546    2.56420   11.81449
      H1    14.81065    2.97479   11.50920
       H    11.61081    0.38225   13.99851
       O    11.93904   -0.20535   13.30377
      H1    12.88196   -0.33938   13.46920
       H    17.14469   -5.10081    8.27955
       O    18.11033   -5.17196    8.03352
      H1    18.08768   -5.56621    7.12342
       H    15.38183    1.11481   17.65950
       O    14.53057    1.56468   17.80882
      H1    14.34273    1.25459   18.69687
       H    18.30120    2.96872    7.22297
       O    17.72972    2.39694    6.68640
      H1    18.10600    1.49596    6.77169
       H    17.07474    2.27795   14.71010
       O    16.93594    1.29994   14.75931
      H1    17.28705    0.93185   13.95474
       H    17.53988    3.83466    5.60089
       O    17.36095    4.64227    5.10140
      H1    17.46526    4.24344    4.20682
       H    11.34546   -0.27574    7.62628
       O    12.15799    0.23117    7.61337
      H1    11.97521    0.99876    8.13024
       H    19.31777    3.07901    3.09611
       O    18.46540    2.68380    3.18078
      H1    18.63000    2.11126    3.94874
       H    15.06321   -1.59144   14.96918
       O    15.98532   -1.88192   14.89442
      H1    16.31007   -1.75986   15.83479
       H    16.15016    9.98991   14.62247
       O    16.22968   10.97870   14.64742
      H1    17.11324   11.13662   14.32152
       H    14.72254    6.33851    6.15441
       O    15.01022    6.56392    7.07740
      H1    14.21406    6.60825    7.58952
       H    12.71075   -2.61919   15.25624
       O    13.34391   -1.91830   15.48649
      H1    13.04981   -1.04935   15.19260
       H    14.11619    4.37963   13.59103
       O    14.61485    3.68205   14.14891
      H1    13.93711    3.49624   14.82585
       H    16.33827   -1.10657    5.16128
       O    16.41886   -1.46423    6.04331
      H1    15.77567   -0.97124    6.55168
       H    19.55530   -0.75589    9.70979
       O    18.68385   -1.17038    9.60483
      H1    18.83991   -1.98617    9.08632
       H    17.24805   -5.54759   11.38746
       O    18.16763   -5.87264   11.40172
      H1    18.11958   -6.33014   10.54613
       H    10.77394    6.22772   11.06126
       O    11.13889    7.14298   10.94373
      H1    10.36758    7.54255   10.48555
       H    18.79980    5.56601   10.97302
       O    17.87218    5.91141   10.86433
      H1    17.31823    5.10918   10.88401
       H    12.66975    1.23374    6.17065
       O    12.78444    1.53515    5.22472
      H1    12.08470    0.89470    4.88333
       H    13.36818   -1.74359   17.33584
       O    13.80215   -1.56462   18.18022
      H1    14.63237   -2.02424   18.11184
       H    18.41236   -2.70497   12.71281
       O    17.42401   -2.81235   12.67469
      H1    17.06972   -2.49926   13.50537
       H    19.04348    3.35260   12.99765
       O    19.01943    3.09787   12.06664
      H1    18.87618    2.13120   12.13503
       H    18.44859    4.82600    8.12463
       O    19.10266    4.08165    7.98709
      H1    19.27311    3.78430    8.92717
       H    17.44661    6.09254    9.18755
       O    17.48002    6.26355    8.22348
      H1    16.58665    5.91682    7.98289
       H    17.88112   -3.89364   16.36096
       O    18.16018   -3.09926   16.76861
      H1    17.52602   -2.91355   17.51064
       H    16.22740    3.68863   14.57175
       O    17.14813    3.91081   14.79757
      H1    17.03347    3.98228   15.74056
       H    14.64945    1.64305    5.22098
       O    15.47113    1.61077    4.77335
      H1    16.10472    1.66433    5.52654
       H    14.96413   -2.69749    5.60978
       O    14.34482   -3.46400    5.48380
      H1    14.48296   -3.98094    6.32728
       H    18.03573    9.04899   10.75277
       O    17.71526    8.71435   11.63586
      H1    17.51113    7.76436   11.52625

