180
frame 4 | Written by MDAnalysis XYZWriter (release 2.4.3)
       H    -2.40896  -10.33189  -14.25723
       O    -1.98189  -10.06754  -13.48304
      H1    -2.24296  -10.75661  -12.89805
       H    -4.32236  -13.02736  -15.58950
       O    -5.16137  -13.54381  -15.60253
      H1    -5.66708  -12.84949  -16.06800
       H    -2.19636   -2.94789  -13.23448
       O    -2.42788   -2.43447  -14.05331
      H1    -2.05693   -1.53372  -13.91868
       H    -2.04705  -12.23551  -16.04914
       O    -2.81966  -12.24453  -15.40923
      H1    -2.49104  -12.80998  -14.70584
       H    -1.81290  -10.89161  -18.68315
       O    -1.61469  -11.02361  -17.75815
      H1    -0.83277  -11.50797  -17.73489
       H    -2.13135  -10.87723   -8.13980
       O    -1.79653  -10.20677   -8.73477
      H1    -1.25861  -10.69664   -9.39458
       H     2.51747  -12.11607  -12.40827
       O     3.37300  -12.48981  -12.35267
      H1     3.24930  -13.32519  -12.82730
       H     2.35682  -12.93150  -17.64171
       O     3.30393  -12.72332  -17.70614
      H1     3.64967  -13.54093  -18.06307
       H     0.12194  -13.45436  -16.78420
       O    -0.15015  -13.02131  -15.91348
      H1    -0.65328  -13.72704  -15.51986
       H     0.71672   -3.05392  -12.60365
       O     0.33502   -3.04132  -11.67497
      H1     1.09682   -3.48138  -11.22694
       H     3.44021   -7.59284  -18.92309
       O     4.03778   -8.21768  -18.46279
      H1     4.57495   -8.45479  -19.22451
       H    -5.63624   -6.71618  -19.49145
       O    -6.02371   -7.50013  -19.03413
      H1    -6.88738   -7.19337  -18.84579
       H    -3.03408   -4.64294  -10.13593
       O    -2.75228   -5.33421   -9.55170
      H1    -2.87262   -5.03754   -8.61552
       H     2.50545   -5.01092  -10.48783
       O     2.06471   -5.69878  -10.91538
      H1     1.31190   -5.90931  -10.35882
       H    -1.55835   -7.95464  -13.31384
       O    -1.35699   -6.99500  -13.14453
      H1    -0.34908   -7.06732  -13.17286
       H     3.55763   -6.51085  -16.61081
       O     3.61980   -7.30359  -16.01762
      H1     3.88524   -7.95530  -16.66929
       H     1.97074  -10.22975  -10.13708
       O     1.10028   -9.88235  -10.49133
      H1     1.40437   -9.01000  -10.74549
       H     2.00306   -6.99831  -12.13379
       O     1.75124   -7.85052  -12.62871
      H1     2.31241   -7.76323  -13.39627
       H    -1.24895   -3.77906  -16.92398
       O    -1.35907   -4.26510  -16.08032
      H1    -1.58054   -3.58021  -15.43935
       H    -2.73225  -10.25951  -10.21344
       O    -3.42053  -10.17531  -10.88050
      H1    -3.42899   -9.28240  -11.15525
       H     4.03351   -0.57899  -12.24770
       O     4.15349   -1.55480  -12.19202
      H1     4.37323   -1.72341  -13.12951
       H    -1.27184   -1.75065  -17.94836
       O    -1.50251   -1.11872  -17.23215
      H1    -2.49416   -1.18612  -17.12352
       H    -3.74017   -8.55322  -13.92417
       O    -4.37251   -7.83074  -14.03659
      H1    -4.78797   -8.06006  -14.90243
       H    -2.47911  -14.04453  -12.49745
       O    -2.02841  -13.39346  -13.07787
      H1    -1.10448  -13.52485  -12.97442
       H    -1.28491   -3.98844  -11.96273
       O    -2.14338   -4.44043  -12.18192
      H1    -1.85375   -5.27607  -12.51623
       H     0.77959   -7.95518  -17.04089
       O     0.55819   -8.30330  -16.16949
      H1     0.42227   -7.49283  -15.64692
       H    -3.17861   -4.45974  -17.15564
       O    -3.54906   -4.36383  -18.06071
      H1    -4.12993   -3.55767  -17.86975
       H     1.06053   -9.13078  -19.20760
       O     0.67262   -8.25547  -19.15103
      H1     0.95135   -7.87488  -19.97514
       H     1.64631   -5.48742  -18.20800
       O     2.39629   -5.20034  -17.70318
      H1     2.77119   -4.49186  -18.28909
       H     1.90265   -8.53117   -7.93207
       O     0.97964   -8.26524   -8.12795
      H1     0.67622   -9.10084   -8.52550
       H     6.94242   -8.94130  -12.70374
       O     7.78449   -9.44995  -12.52848
      H1     8.04457   -9.57285  -13.43456
       H    -2.11733   -9.37657  -16.90566
       O    -2.22180   -8.40596  -16.68146
      H1    -1.37699   -8.02625  -16.42422
       H    -0.60622   -4.47611  -19.18084
       O    -0.14496   -5.35479  -19.26633
      H1    -0.89085   -6.01145  -19.36463
       H    -2.27095   -3.40219  -18.64293
       O    -1.46470   -3.06328  -19.10207
      H1    -1.81629   -3.10158  -20.02515
       H     6.27571  -10.14748  -19.29611
       O     6.03452  -10.88909  -18.72219
      H1     6.02264  -10.44504  -17.84854
       H    -6.14921  -10.44936  -16.21385
       O    -6.70218  -11.26489  -16.11669
      H1    -7.30489  -11.10175  -16.81773
       H     4.05818   -3.05914  -14.47018
       O     4.80587   -2.52602  -14.73674
      H1     4.48425   -1.94006  -15.39753
       H     0.62542  -14.65728  -18.48552
       O     0.71060  -13.72207  -18.28741
      H1     0.67863  -13.36080  -19.15070
       H     1.31727  -13.20905  -14.97734
       O     2.22377  -13.55855  -14.79235
      H1     2.77134  -12.85843  -15.28424
       H    -0.80787   -5.61501   -9.16221
       O     0.20253   -5.74495   -9.05392
      H1     0.30673   -6.70565   -8.91479
       H     6.33387   -3.64059  -14.42873
       O     7.02119   -4.29665  -14.10479
      H1     7.81347   -3.71633  -13.83979
       H     7.74101   -6.70667  -16.62096
       O     7.23065   -6.79856  -17.46857
      H1     6.32916   -6.97445  -17.16489
       H     2.09981   -9.46068  -15.47021
       O     2.62421  -10.12596  -15.00634
      H1     1.99917  -10.36874  -14.24819
       H    -3.43754   -7.15458  -12.00413
       O    -3.61743   -7.43067  -11.08746
      H1    -3.24125   -6.65344  -10.63533
       H     0.78720  -12.88332  -12.90014
       O     0.73179  -13.62849  -12.29192
      H1     0.42864  -13.16918  -11.48906
       H     4.92915   -6.96406  -10.16729
       O     5.40800   -7.58159  -10.83916
      H1     4.79781   -7.76922  -11.52704
       H    -2.24183   -7.62801  -18.38807
       O    -1.95122   -7.47186  -19.28763
      H1    -1.04761   -7.83857  -19.23018
       H     4.07124  -10.74594  -10.38369
       O     3.43335  -10.78794   -9.60293
      H1     3.52410  -11.74139   -9.33166
       H    -4.25814   -2.19331  -13.48786
       O    -5.11730   -2.12839  -13.07487
      H1    -5.49778   -3.00405  -13.29578
       H    -0.25080  -10.58013  -13.28055
       O     0.64592  -10.90015  -13.02625
      H1     0.64704  -10.55212  -12.08688
       H     4.93699   -8.00689  -14.31612
       O     5.62911   -8.44108  -13.74515
      H1     5.14036   -9.15812  -13.31993
       H     3.76489   -0.53313  -16.86102
       O     4.26565   -1.34979  -17.15724
      H1     4.48469   -1.16248  -18.06923
       H     2.75932  -11.29974  -18.59343
       O     2.46350  -10.50740  -19.08299
      H1     2.94819   -9.88989  -18.55859
       H     0.16572    0.83035  -15.59319
       O     0.44811   -0.08544  -15.68398
      H1    -0.14742   -0.29328  -16.41730
       H    -4.22323   -8.37010  -16.61058
       O    -5.17378   -8.60479  -16.65380
      H1    -5.46622   -8.34436  -17.52962
       H     1.57951   -5.46523  -15.91011
       O     0.86751   -5.66618  -15.25840
      H1     0.12228   -5.17046  -15.69990
       H     4.28802  -11.92993  -16.46193
       O     4.88055  -11.62433  -15.76240
      H1     4.35745  -10.96308  -15.33622
       H    -6.31141   -6.99806  -15.83996
       O    -6.47089   -5.98960  -15.84833
      H1    -5.74007   -5.77221  -15.23540
       H     4.62295  -11.17610  -12.34795
       O     4.98621  -10.38210  -11.87681
      H1     5.92495  -10.58920  -11.79066
       H     0.27913   -3.62712  -14.83532
       O     0.74321   -2.84674  -14.35934
      H1     0.50172   -2.05269  -14.85948

