180
frame 3 | Written by MDAnalysis XYZWriter (release 2.4.3)
       H     6.45687   -4.32128   -4.47177
       O     6.34349   -5.30126   -4.44302
      H1     5.47209   -5.40268   -4.89884
       H     7.08419   -6.11856  -11.78225
       O     7.63953   -5.31709  -11.87351
      H1     7.45230   -4.98607  -12.77931
       H     9.06833   -2.58121  -11.50332
       O     9.27769   -2.55699  -10.52892
      H1     8.40193   -2.92486  -10.33028
       H     2.43277  -12.97104  -11.95387
       O     3.41410  -12.90887  -11.94585
      H1     3.64977  -13.22378  -12.83309
       H     3.76907   -2.74368   -9.61745
       O     3.03744   -3.19048   -9.17560
      H1     2.96315   -2.72160   -8.31122
       H     8.12836  -11.35143   -6.59380
       O     7.18991  -11.65073   -6.53425
      H1     6.78668  -10.93628   -7.05380
       H    10.89605   -9.53721  -10.54087
       O    11.47950  -10.28723  -10.62421
      H1    11.13510  -10.85096  -11.35386
       H     3.76036  -12.93531   -9.14495
       O     4.13587  -12.94664   -8.29804
      H1     4.88841  -13.50639   -8.38867
       H     8.45722   -5.18353   -6.83111
       O     8.48094   -4.57283   -7.55024
      H1     9.26432   -3.99759   -7.36330
       H     7.52523   -2.34287   -6.02158
       O     7.12371   -2.25174   -6.86524
      H1     7.14869   -3.19096   -7.18910
       H     3.34426   -8.12785   -6.85903
       O     3.07111   -8.19137   -7.76890
      H1     3.65880   -8.94885   -8.04437
       H     3.66525   -4.26552   -4.59042
       O     3.95825   -4.33389   -5.52228
      H1     3.15477   -4.77305   -5.91642
       H     5.60087   -7.34919   -5.76897
       O     4.81181   -7.86063   -5.74596
      H1     4.83466   -8.42608   -5.00117
       H     2.05280   -4.38728  -10.70121
       O     1.40707   -4.92735  -11.12296
      H1     1.27005   -5.66017  -10.49909
       H    -1.66243   -7.86341  -13.64386
       O    -1.31187   -6.92726  -13.45569
      H1    -0.43813   -7.11152  -13.01943
       H     3.68199   -5.99330  -16.10990
       O     4.30408   -6.71632  -16.19902
      H1     3.90944   -7.28257  -16.84608
       H    10.03151   -9.13705  -14.19581
       O     9.24432   -8.86820  -14.69508
      H1     9.48922   -7.93689  -14.84507
       H     2.22317   -9.72288  -10.67060
       O     1.42556   -9.56852  -11.15523
      H1     1.56818   -8.69799  -11.50664
       H     2.01033   -6.53322  -12.37398
       O     1.85455   -7.42198  -12.74587
      H1     2.71091   -7.54253  -13.19480
       H     6.54278  -14.72814  -11.96726
       O     6.46420  -15.11520  -12.90903
      H1     7.21392  -15.74174  -12.88782
       H    10.04637  -11.36763   -7.25291
       O     9.83401  -10.95406   -6.37481
      H1    10.04285   -9.97812   -6.42843
       H     3.28416   -0.87862  -11.56909
       O     3.96284   -1.57646  -11.62687
      H1     4.34645   -1.39991  -12.49895
       H    11.03485   -6.65078  -15.50770
       O    10.07370   -6.51442  -15.45914
      H1     9.89439   -6.12591  -14.59799
       H     8.83383   -9.33134  -16.76266
       O     9.13446   -9.98339  -17.48348
      H1     8.26838  -10.46755  -17.63876
       H     0.80114   -6.62816  -15.63948
       O     0.50237   -7.53405  -15.62108
      H1    -0.07095   -7.53266  -14.84231
       H     9.49399   -4.94578  -15.93844
       O     8.97430   -4.29171  -16.41932
      H1     8.09004   -4.27072  -15.99496
       H    10.37884   -6.58315   -9.03564
       O     9.45388   -6.69005   -8.74050
      H1     9.21444   -5.80156   -8.44928
       H    10.37590   -4.01962  -10.54619
       O    10.88410   -4.79886  -10.27382
      H1    10.79015   -5.33401  -11.04410
       H     8.95391   -8.11630   -9.64127
       O     8.90981   -8.82476  -10.32504
      H1     8.24691   -8.57887  -10.95923
       H     1.45587   -8.72062   -8.17912
       O     0.52478   -8.99658   -8.06264
      H1     0.45233   -9.77487   -8.60249
       H     6.33180   -8.36691  -13.12418
       O     7.20785   -8.76098  -12.78819
      H1     7.72203   -8.74819  -13.66230
       H     3.84970  -12.55109   -5.78799
       O     3.94969  -11.66740   -5.36162
      H1     3.08447  -11.47175   -4.94500
       H     9.19815  -12.16351  -16.29456
       O     8.97246  -12.80186  -15.59719
      H1     8.15553  -12.46691  -15.25885
       H     9.32786   -5.94047  -12.22097
       O    10.24123   -5.90326  -12.63023
      H1    10.58014   -6.81740  -12.62475
       H     3.85945   -3.32119  -13.41331
       O     4.53582   -3.32384  -14.05951
      H1     4.03913   -3.13351  -14.84992
       H    10.17266   -7.81314   -7.29483
       O    10.84360   -8.43533   -6.99130
      H1    11.11221   -8.08896   -6.12574
       H     1.30888   -5.65449   -7.51570
       O     1.70605   -5.50586   -6.67131
      H1     1.52336   -6.34700   -6.21360
       H     6.52568  -14.40455  -15.59961
       O     5.72786  -13.81673  -15.80722
      H1     6.11575  -13.06148  -15.33419
       H     6.57929   -3.87743  -10.62712
       O     6.37029   -3.45137   -9.80919
      H1     5.98316   -4.23404   -9.30149
       H    -0.62274   -6.14575   -8.75683
       O     0.32707   -6.42659   -8.80774
      H1     0.32881   -7.31180   -8.49849
       H     6.34241   -3.89549  -14.02835
       O     7.21898   -4.21526  -14.04806
      H1     7.76214   -3.45210  -13.79442
       H     6.69980  -10.90313  -14.15903
       O     6.82821  -11.89293  -14.09036
      H1     6.95619  -11.90184  -13.13165
       H     6.48753   -7.04272  -18.66687
       O     6.70766   -6.82019  -17.72691
      H1     5.88549   -6.80636  -17.26673
       H     3.81681   -6.21513   -8.40559
       O     4.28914   -5.41355   -8.70442
      H1     3.59155   -4.72888   -8.73443
       H     1.58235   -8.94140  -15.22074
       O     2.18790   -9.60434  -14.83408
      H1     1.54679  -10.04974  -14.22325
       H     0.69808  -12.65685  -12.31052
       O     0.63784  -13.56524  -11.95154
      H1    -0.13804  -13.53729  -11.34148
       H    10.34029  -11.68700  -13.50750
       O    10.92008  -10.92239  -13.58902
      H1    11.04300  -10.82971  -14.55826
       H     5.23699   -6.74266  -10.11388
       O     5.87394   -7.46508  -10.33365
      H1     5.49486   -8.08447  -10.97328
       H     6.13643  -10.55394   -4.22000
       O     7.04768  -10.88013   -4.08742
      H1     7.07252  -11.18814   -5.04645
       H     3.90472  -10.62264  -10.01073
       O     3.19826  -10.59421   -9.36554
      H1     3.52888  -11.11374   -8.64901
       H     6.92834  -13.28821  -10.50514
       O     6.55928  -14.18304  -10.38407
      H1     6.55451  -14.27445   -9.45254
       H    -0.26991  -10.69453  -13.45972
       O     0.60272  -11.11979  -13.23777
      H1     0.85060  -10.59577  -12.45444
       H     4.69665   -7.74799  -14.55262
       O     4.52461   -8.18175  -13.68690
      H1     3.76307   -8.75695  -13.89893
       H     7.50430   -9.19877   -9.16136
       O     6.79247   -9.34747   -8.48849
      H1     6.12312   -8.71583   -8.76248
       H    12.56457   -7.36290  -11.72651
       O    12.01886   -7.93811  -12.31886
      H1    12.29125   -8.80764  -11.93530
       H     7.55627   -8.15109   -7.22856
       O     7.50433   -7.37700   -6.62344
      H1     8.25424   -7.61333   -6.05827
       H    10.08768  -12.94380  -10.35212
       O    10.05448  -13.10295  -11.26560
      H1    10.45030  -13.99860  -11.32064
       H     4.06750  -11.72883  -17.01170
       O     4.58160  -10.93554  -16.97804
      H1     3.90728  -10.42490  -16.52658
       H     8.42885  -12.04725  -11.01124
       O     7.50451  -11.74447  -11.09069
      H1     7.54841  -10.98070  -10.52586
       H     4.57452  -11.48884  -11.87830
       O     4.89150  -10.65877  -11.53218
      H1     5.86681  -10.78679  -11.64713

