180
frame 8 | Written by MDAnalysis XYZWriter (release 2.4.3)
       H    -2.37745   15.99933   -1.47278
       O    -2.44532   16.93607   -1.26811
      H1    -1.73851   16.98351   -0.59703
       H   -15.22461   14.37505    5.86357
       O   -14.27583   14.39022    5.76624
      H1   -14.07719   14.72241    4.88786
       H    -3.75565   16.66896   -4.40435
       O    -3.10284   15.97856   -4.30439
      H1    -3.70855   15.23867   -4.02366
       H    -6.37258   14.58551    4.20321
       O    -6.16624   15.31615    4.83927
      H1    -6.54841   16.02940    4.34537
       H   -14.39442   18.93689   -3.21064
       O   -13.72801   18.32347   -3.60350
      H1   -12.98826   18.35858   -2.96472
       H    -5.74880   17.96346   -4.83233
       O    -5.51253   17.17064   -4.39517
      H1    -5.93044   16.46176   -4.94402
       H    -5.62151   16.31009    6.99809
       O    -4.81796   16.40765    7.49168
      H1    -4.34506   15.68053    7.01375
       H    -0.26397   18.35937   -0.27929
       O    -0.62326   18.07061    0.58871
      H1    -1.34326   18.77132    0.70583
       H   -10.63538   12.39170    2.66707
       O   -10.79436   13.15380    3.27283
      H1   -10.03967   13.71972    2.98254
       H    -6.71240   18.64704   -1.21221
       O    -6.18333   18.68181   -0.36522
      H1    -6.23383   19.64402   -0.11975
       H    -8.90317   15.23797    0.12367
       O    -8.20109   15.81677    0.46409
      H1    -7.72869   16.00021   -0.42390
       H    -3.75609   14.08220    0.70284
       O    -4.48113   14.50828    0.16276
      H1    -5.28536   14.18846    0.52611
       H    -3.76956   18.90361    1.03226
       O    -3.05941   19.54967    1.10523
      H1    -3.07148   20.00965    0.23943
       H   -13.45930   19.70014    3.44758
       O   -12.86014   18.93734    3.42639
      H1   -11.98357   19.31942    3.10816
       H    -7.61943   16.34427   -2.61245
       O    -6.88860   16.72721   -2.11671
      H1    -6.21169   16.85056   -2.86439
       H   -11.53901   12.35077   -2.29515
       O   -11.10911   12.58081   -1.44337
      H1   -11.62366   12.21592   -0.74437
       H    -7.77363   11.91708    2.02990
       O    -7.42429   11.36395    1.28823
      H1    -6.68096   10.98194    1.72910
       H   -10.58695    9.79500    2.14074
       O   -10.68618   10.71906    2.00147
      H1   -11.21307   10.81105    1.16894
       H    -7.11542    9.27485   -0.84472
       O    -8.03292    9.10484   -0.49825
      H1    -8.03665    9.67731    0.25703
       H    -4.47028   14.26447   -1.98593
       O    -4.13974   13.88646   -2.86528
      H1    -3.13109   13.90050   -2.69249
       H    -3.75104   11.74061   -0.70092
       O    -4.66902   11.53893   -0.57364
      H1    -5.00650   12.30138   -1.05220
       H   -13.04293   18.15071    1.65278
       O   -13.45260   17.59052    1.00243
      H1   -14.03091   18.33470    0.69606
       H    -8.83322   14.70412   -6.98395
       O    -8.42090   13.92166   -6.57114
      H1    -8.73438   13.73840   -5.67565
       H    -5.87097   18.90175    4.79399
       O    -5.17170   19.22053    5.39047
      H1    -5.36560   18.76993    6.21947
       H   -10.92044   15.43559   -7.76757
       O    -9.98598   15.92240   -7.67103
      H1   -10.21723   16.66693   -7.05435
       H    -3.97207   16.41797    4.51405
       O    -3.45076   17.18591    4.32816
      H1    -4.14994   17.79452    4.11300
       H    -7.62213   12.02679   -3.80415
       O    -6.62987   12.03229   -3.82610
      H1    -6.56110   11.09754   -3.43650
       H   -10.14389   12.19199    5.98133
       O   -10.47013   11.50069    5.38786
      H1   -10.53804   12.01046    4.57111
       H   -13.13382   15.24657   -4.07943
       O   -12.20187   15.30401   -3.78116
      H1   -11.98769   16.19301   -4.06124
       H    -8.70366   18.53357   -0.94134
       O    -9.17692   18.20943   -0.12514
      H1    -8.69401   17.37264    0.11464
       H   -12.95881   10.94354    0.64609
       O   -12.39160   10.65324   -0.15245
      H1   -12.54413    9.66679   -0.19484
       H    -8.67103   16.74887    7.65229
       O    -7.77173   16.75576    7.92029
      H1    -7.79482   17.58007    8.48129
       H   -16.83629   15.05279   -0.23270
       O   -16.21293   14.40514    0.17068
      H1   -15.44555   14.43280   -0.46558
       H    -7.08620   14.46176   -5.70801
       O    -6.20212   14.61127   -5.30635
      H1    -6.27389   14.08015   -4.51338
       H   -13.17312   15.22482    3.06928
       O   -13.04286   15.66688    3.88328
      H1   -13.13540   16.56098    3.61004
       H    -6.30351   12.68672    4.32305
       O    -6.98429   12.79432    3.63614
      H1    -7.71660   13.25639    4.20177
       H   -12.11005   17.58426   -6.11562
       O   -11.57082   17.64058   -5.28203
      H1   -12.11522   18.28428   -4.81498
       H    -8.48396   13.85021   -2.94819
       O    -8.91049   14.39238   -3.64657
      H1    -9.55884   13.76092   -3.94143
       H    -8.80774   16.31072    3.38789
       O    -8.34157   15.46403    3.15586
      H1    -8.17586   15.50707    2.16769
       H    -4.76320   18.87522   -1.48770
       O    -3.89715   19.12289   -1.85826
      H1    -3.42564   18.37362   -1.57373
       H    -5.78543   10.38444   -1.54689
       O    -6.19590    9.82197   -2.15418
      H1    -5.46205    9.32751   -2.54590
       H    -9.37567   10.70266   -5.01431
       O    -9.31788   11.34132   -4.31349
      H1    -9.45170   10.83266   -3.48583
       H   -13.97602   16.40022   -0.95441
       O   -14.26373   15.76775   -1.64331
      H1   -13.53288   15.86700   -2.30875
       H    -7.87278   14.33075    5.96634
       O    -8.72853   13.86829    5.98133
      H1    -9.45049   14.56902    5.75022
       H   -11.39909   15.89716    6.34480
       O   -10.88557   15.60751    5.56916
      H1   -11.63278   15.44625    4.94717
       H   -11.17751   14.35897   -0.99538
       O   -10.82155   15.15248   -0.48275
      H1   -10.98903   15.89692   -1.12471
       H    -2.09083   12.76411    1.59210
       O    -2.17952   13.52508    0.97667
      H1    -1.42895   14.07239    1.26002
       H    -2.58919   18.94196   -5.06281
       O    -3.20843   18.86591   -5.85435
      H1    -3.95823   19.27080   -5.42329
       H    -5.31080   17.25554    0.51527
       O    -4.73869   16.92776    1.21791
      H1    -4.54096   16.06419    0.91574
       H   -13.52380   12.83483    1.85834
       O   -13.66273   11.87342    1.81685
      H1   -13.99701   11.71566    2.75616
       H   -10.31216   19.02628    4.87088
       O   -10.00238   18.21156    4.39191
      H1   -10.46119   17.43253    4.83010
       H   -16.93674   17.20400   -1.36027
       O   -16.33064   17.76308   -1.86280
      H1   -15.55408   17.20438   -1.95194
       H    -7.26561   12.37306   -0.71817
       O    -7.07694   13.03686   -1.42982
      H1    -7.08171   12.42066   -2.17197
       H   -13.51737   15.37721    0.92780
       O   -12.99758   14.68401    1.28616
      H1   -12.14164   14.84807    0.83734
       H   -10.30738   11.17717   -1.84311
       O    -9.98136   10.24919   -2.02761
      H1    -9.58983    9.90771   -1.26164
       H   -12.27805   17.91001   -0.87626
       O   -11.95040   17.91261   -1.77607
      H1   -11.12858   18.46295   -1.72774
       H    -0.74719   17.19633    2.19491
       O    -0.96073   16.79040    3.07197
      H1    -1.86266   16.93001    3.34433
       H   -11.48680   14.17122   -4.89020
       O   -11.13101   13.34051   -5.21854
      H1   -11.64319   12.74963   -4.68630
       H    -7.19275   17.96561    2.98180
       O    -7.14768   18.10895    3.90502
      H1    -8.06555   18.43455    3.96474
       H    -8.89199   16.25310   -4.14788
       O    -8.84153   17.21363   -4.13949
      H1    -9.67009   17.38140   -4.65431

