180
frame 9 | Written by MDAnalysis XYZWriter (release 2.4.3)
       H   -16.89697   -9.91250   16.50323
       O   -16.75451   -9.46668   15.66886
      H1   -15.91764   -9.91377   15.35711
       H    -8.76361  -11.73656   10.81705
       O    -9.71853  -11.66952   10.53360
      H1   -10.11688  -10.97956   11.12019
       H   -13.43447   -1.68194   17.29378
       O   -13.15808   -0.75381   17.23194
      H1   -12.44250   -0.85145   16.60304
       H    -6.44106  -11.55011   14.97741
       O    -5.61700  -11.39993   15.42329
      H1    -5.05022  -11.26630   14.62864
       H    -6.82773   -8.58265   12.22366
       O    -6.30856   -8.59028   11.43767
      H1    -6.85987   -8.09636   10.78639
       H    -5.38353   -4.68730   17.03973
       O    -5.58664   -4.51297   16.09373
      H1    -6.05791   -3.69444   16.12604
       H   -10.15189  -15.27943   18.80963
       O    -9.94990  -15.25117   19.74411
      H1    -9.09412  -14.83066   19.79971
       H   -19.29344   -6.48761   16.67857
       O   -18.57060   -6.55198   17.32492
      H1   -18.69461   -5.70821   17.87896
       H   -12.76249  -11.34798   13.16172
       O   -12.88116  -10.99929   12.26353
      H1   -13.54657  -10.27015   12.33644
       H   -12.43264   -4.35410   17.06490
       O   -12.64732   -3.66142   17.64237
      H1   -13.41314   -4.00812   18.14287
       H   -10.93701  -13.28812   19.71366
       O   -11.04259  -12.71454   18.90605
      H1   -11.04815  -11.77147   19.23594
       H    -8.24048   -9.52866   13.46571
       O    -8.37701   -8.65144   12.99868
      H1    -9.19433   -8.76842   12.48973
       H   -12.33943  -16.72326   19.01853
       O   -13.17805  -16.57594   19.49680
      H1   -13.09249  -15.67194   19.81605
       H    -2.30487   -7.63054   16.29378
       O    -3.06847   -7.06507   16.69452
      H1    -3.84626   -7.61896   16.63089
       H    -4.29071   -6.23950   17.80269
       O    -4.85475   -5.67629   18.30356
      H1    -5.50527   -6.34292   18.62753
       H   -10.06543   -2.84363   19.06574
       O   -10.60365   -2.28243   18.49086
      H1   -11.33780   -2.91274   18.31251
       H   -12.84017   -0.25256   19.16979
       O   -13.11253    0.37481   19.81387
      H1   -13.90023    0.77318   19.36315
       H    -6.13290   -7.07312   14.27569
       O    -6.17225   -7.02650   15.28193
      H1    -5.87758   -6.09871   15.44218
       H    -4.56768   -9.86555   17.72716
       O    -4.42359   -9.42638   16.89347
      H1    -5.00195   -9.94844   16.28367
       H   -11.73422   -0.11171   14.01206
       O   -11.73718   -1.04319   14.27846
      H1   -10.82911   -1.30528   13.96779
       H    -5.76385  -13.83346   17.48339
       O    -5.88088  -12.93517   17.90063
      H1    -5.82166  -12.34588   17.10131
       H    -7.86527   -7.46799   15.60985
       O    -8.84967   -7.77004   15.62067
      H1    -8.89094   -8.40073   16.38421
       H   -12.27692   -6.60047   10.54155
       O   -11.38875   -6.87661   10.22080
      H1   -11.44520   -6.85154    9.24949
       H    -9.61536   -2.18338   11.80906
       O    -9.31273   -2.03778   12.73675
      H1    -8.89323   -2.87916   13.04408
       H    -5.04422   -2.22419   18.77683
       O    -5.17906   -1.59100   17.95391
      H1    -4.26151   -1.73913   17.49775
       H   -14.89284  -11.91799   12.76467
       O   -15.76937  -12.05255   12.33784
      H1   -16.30697  -11.43693   12.90861
       H   -16.29485   -4.21292   16.14934
       O   -15.88076   -4.27841   15.26958
      H1   -15.46242   -3.39329   15.07021
       H   -15.69477   -1.71364   16.15773
       O   -15.19382   -1.59488   15.32778
      H1   -14.38490   -1.28132   15.75251
       H   -15.40845   -9.81336   18.61322
       O   -14.78163  -10.51398   18.41534
      H1   -14.80990  -10.47334   17.47298
       H   -15.27258   -4.72964   19.58974
       O   -15.13160   -4.88856   18.62869
      H1   -15.40897   -5.75395   18.37549
       H   -16.74036   -7.94978   13.98067
       O   -16.74440   -7.02434   13.72001
      H1   -15.99723   -7.07410   13.10263
       H   -11.50156   -9.38265   15.98348
       O   -12.44048   -9.50566   16.20845
      H1   -12.53118   -8.98837   17.06394
       H   -13.47451   -8.85118   18.71892
       O   -13.10418   -8.01777   18.39414
      H1   -13.85788   -7.42918   18.38086
       H    -6.97641   -2.10364   15.11470
       O    -6.90107   -2.15661   16.09665
      H1    -6.03971   -1.70777   16.28704
       H   -10.95918   -7.94344   13.07409
       O   -10.77642   -7.16135   13.68302
      H1   -10.03967   -7.57339   14.25379
       H    -9.70262   -1.40837   17.39794
       O    -9.09247   -0.82522   16.87994
      H1    -8.38311   -1.48420   16.59881
       H   -11.65648  -12.54033   15.29532
       O   -11.24606  -12.14548   14.51801
      H1   -11.19039  -12.90722   13.88487
       H   -11.81103  -13.50469   17.42061
       O   -11.88663  -13.94976   16.49538
      H1   -10.98892  -14.27868   16.35102
       H   -14.95331   -5.12751   13.85659
       O   -14.08996   -4.98866   13.44081
      H1   -13.56077   -5.37660   14.20675
       H    -8.60788  -11.50677   17.33424
       O    -8.78894  -12.45262   17.38016
      H1    -9.53075  -12.52889   18.00170
       H   -12.01505   -6.50095   15.14146
       O   -12.64301   -5.93875   15.60106
      H1   -13.34468   -6.47602   15.87231
       H   -11.21583   -8.49423   11.11232
       O   -10.72893   -9.05431   11.72329
      H1   -11.54897   -9.57259   11.89920
       H   -13.67819  -10.39002   15.37264
       O   -14.44249  -10.84767   14.93565
      H1   -14.40729  -11.70409   15.35823
       H    -5.96664   -8.65571   18.83774
       O    -6.38584   -8.01699   18.21085
      H1    -6.00502   -8.31482   17.36345
       H    -8.18460   -0.14014   18.33876
       O    -7.45066   -0.02734   19.01835
      H1    -6.65127   -0.51517   18.65739
       H    -8.79687  -14.96841   15.90450
       O    -9.61879  -15.32899   16.18983
      H1    -9.54406  -16.19722   15.78001
       H   -14.58133  -13.86412   15.25729
       O   -14.64326  -13.33541   16.06136
      H1   -13.90731  -13.76332   16.56777
       H    -8.91339  -11.74399   14.34253
       O    -8.11461  -11.23077   14.16183
      H1    -7.80221  -11.59793   13.33607
       H   -19.10731   -9.09662   17.64388
       O   -18.79986  -10.02832   17.69415
      H1   -18.79296  -10.25125   18.61124
       H   -17.37969   -2.56697   17.77456
       O   -16.50705   -2.41372   18.05172
      H1   -16.06925   -3.24242   18.19693
       H   -18.24951  -12.20319   14.49475
       O   -18.01069  -11.44694   13.95076
      H1   -17.91005  -10.84223   14.70513
       H   -13.83358   -5.38128   11.72992
       O   -13.97249   -5.96923   11.02880
      H1   -13.43755   -5.54492   10.34744
       H    -8.46532   -9.04830   18.25143
       O    -9.11569   -9.59349   17.83764
      H1    -9.81162   -9.60618   18.48374
       H   -12.66128   -2.10598   13.05188
       O   -12.99879   -2.69701   12.36651
      H1   -13.19576   -3.52033   12.80273
       H   -16.02941   -6.76331   16.06731
       O   -15.48924   -7.19096   16.73482
      H1   -15.85064   -8.07784   16.75998
       H    -9.41820   -5.79349   12.96703
       O    -8.64056   -5.30886   12.63599
      H1    -8.27633   -6.01298   12.13824
       H    -8.13977   -5.68209   17.25466
       O    -8.34249   -6.10507   18.09500
      H1    -7.60933   -6.73505   18.25629
       H   -11.48663   -7.43568   18.77047
       O   -10.82380   -6.87892   19.26003
      H1   -10.08025   -6.73024   18.59846
       H   -19.88097   -3.99032   17.85812
       O   -18.90677   -3.91211   18.05278
      H1   -18.88490   -4.05633   19.01697
       H   -14.16764   -7.81284   11.99508
       O   -14.76908   -8.41970   12.39769
      H1   -15.49603   -8.58712   11.75145

