180
frame 7 | Written by MDAnalysis XYZWriter (release 2.4.3)
       H    16.85038   -1.99344   13.55967
       O    16.63688   -2.37910   14.40886
      H1    17.12185   -1.81317   15.08799
       H    12.24485    4.96720   15.30214
       O    12.62175    4.12538   15.67267
      H1    12.24341    3.46057   14.99899
       H    18.28033    4.81479    6.26189
       O    17.91566    3.95287    6.64447
      H1    17.03059    4.28493    7.01290
       H    17.73721    7.05548    5.76512
       O    18.49578    6.47202    5.92279
      H1    19.24887    6.86521    5.39941
       H    16.34014    6.57450   10.87842
       O    15.52379    7.01795   10.61078
      H1    14.89771    6.44557   11.04962
       H    18.85057    6.03897    9.63757
       O    18.37549    5.57769   10.35846
      H1    18.96247    4.80778   10.53172
       H    16.20563   -2.55451   18.54096
       O    16.54368   -1.73684   18.15133
      H1    15.75866   -1.12842   18.22397
       H    18.11747   -3.94897   10.73635
       O    18.38161   -3.07872   10.32335
      H1    19.16754   -2.89176   10.83295
       H    15.54512    3.40337    8.24049
       O    15.30059    3.98005    7.50424
      H1    15.14613    4.89412    7.78280
       H    18.44193    0.37486   16.02361
       O    18.10873   -0.52284   15.93654
      H1    17.77349   -0.76058   16.76664
       H    11.21640   -2.93547    5.69268
       O    11.12255   -2.49930    6.51914
      H1    12.00178   -2.05812    6.58923
       H    11.01536    2.11920   14.00421
       O    11.92173    1.83103   14.38085
      H1    12.52927    1.74953   13.63083
       H    19.73337    7.90497    8.58170
       O    19.52478    6.96316    8.40261
      H1    19.01534    6.98048    7.64274
       H    14.48177    1.70210   12.27155
       O    13.64179    2.19164   12.24463
      H1    13.23341    1.98463   11.39250
       H    14.35936    3.03852    4.86420
       O    15.23640    2.69785    4.91783
      H1    15.59794    3.03271    5.70647
       H    19.02353   -4.61007    6.69827
       O    18.44393   -3.87317    6.88605
      H1    17.80958   -4.22113    7.57343
       H    12.48769    2.48763    5.47336
       O    12.00711    3.25184    5.86228
      H1    11.06592    2.85602    5.93252
       H    15.55799   -1.17155    8.37912
       O    16.17082   -1.04446    9.06869
      H1    17.05951   -1.13769    8.68915
       H    15.32674   10.32534   10.26011
       O    15.29749    9.95076   11.20095
      H1    15.18668    9.02614   11.20636
       H    17.33596    3.57823   13.39822
       O    17.26195    3.79926   14.31837
      H1    16.39464    3.43190   14.59954
       H    13.45452   -1.94096   13.34708
       O    13.36508   -0.95790   13.43614
      H1    12.69619   -0.73653   12.78776
       H    16.10012    0.39714   15.07994
       O    15.18881    0.68553   15.32851
      H1    14.59640    0.25334   14.68005
       H    19.43753    2.37611    9.21697
       O    19.77334    3.15005    8.67176
      H1    19.13673    3.08405    7.89633
       H    16.77897   -1.92127    5.39166
       O    17.06784   -2.71693    4.94344
      H1    17.50053   -3.37833    5.51754
       H    13.42972   -0.56526    7.96905
       O    13.66988   -1.16364    7.23409
      H1    14.39878   -0.79523    6.71997
       H    15.01860    6.70383   18.03934
       O    15.96558    6.50797   18.16067
      H1    16.48099    6.20945   17.40035
       H    16.45672    1.21128    9.31269
       O    16.00595    2.03850    9.17535
      H1    15.10997    1.76001    8.94350
       H    15.78570   -4.00995    8.35275
       O    16.60264   -4.46754    8.57625
      H1    17.09259   -3.87811    9.16645
       H    17.24295   -0.19107   12.21078
       O    17.22835   -1.11509   12.20835
      H1    17.53924   -1.51231   11.35974
       H    18.50352    0.19385    6.92978
       O    17.90754    0.93408    7.15861
      H1    18.06515    1.68238    6.58137
       H    13.27410   -3.12562    7.91731
       O    13.61326   -3.99238    7.66581
      H1    13.58253   -4.02428    6.68200
       H     9.73533   -0.26277   14.03683
       O     9.36263   -0.43742   13.11820
      H1     8.42309   -0.35947   13.34450
       H    18.99927   -4.37547   15.10151
       O    18.14301   -4.73098   14.88325
      H1    17.53956   -3.94799   14.79264
       H    14.50272   -6.92745   12.67436
       O    14.93916   -6.11445   12.40278
      H1    14.70236   -5.46001   13.07282
       H    10.62542    6.44458   10.94068
       O    10.85385    7.34114   10.71715
      H1     9.98378    7.71772   10.58911
       H    16.10034    2.34920   17.48194
       O    16.65836    1.66745   17.90221
      H1    17.49492    2.16391   18.02260
       H    11.78698   -0.92654   16.11009
       O    12.53636   -1.51808   16.07802
      H1    12.89914   -1.28634   15.22900
       H    16.45567    1.72986   11.16459
       O    17.05687    1.72817   11.94095
      H1    17.89548    2.00422   11.57263
       H    11.60098   -1.10985   11.15239
       O    11.42627   -0.20849   11.41702
      H1    10.69894   -0.06453   12.03704
       H    11.83883    6.86735    9.25964
       O    12.17959    6.62334    8.38199
      H1    11.38347    6.85848    7.85675
       H    13.64006    5.78872   12.89022
       O    13.68649    5.29267   12.06607
      H1    13.67586    4.34268   12.29101
       H    12.05113    3.48338    8.16886
       O    11.58338    3.06234    8.88898
      H1    10.64134    2.92656    8.80836
       H    16.57153    0.36055    6.24707
       O    15.94155   -0.18788    5.79333
      H1    15.57630    0.33489    5.04334
       H    10.38766    3.68263   12.39503
       O     9.96633    3.13132   13.11564
      H1     9.50423    2.47011   12.60711
       H    17.57923   -6.38487   10.83463
       O    17.64701   -5.68215   11.48239
      H1    16.76311   -5.77961   11.92149
       H    14.94709    2.23415   15.84248
       O    15.10326    3.18052   16.13029
      H1    14.24695    3.60407   16.23725
       H    13.50331   -1.09193   18.71336
       O    14.03184   -0.49804   18.16373
      H1    13.71052   -0.71087   17.28602
       H    18.97324    6.85269   14.97007
       O    19.84872    7.06577   14.65783
      H1    20.25579    7.50536   15.42843
       H    13.97906   -3.73391   14.37824
       O    14.31691   -3.40769   13.51142
      H1    15.15248   -2.97807   13.76890
       H    12.48635   -2.95406   10.46377
       O    13.01226   -2.19344   10.21032
      H1    13.88184   -2.32008   10.65089
       H    12.46062    7.35014   14.20412
       O    13.38218    7.33146   13.95452
      H1    13.57702    8.05864   13.37372
       H    11.13823    4.31742   10.37523
       O    11.19573    4.80963   11.23432
      H1    12.09470    5.03880   11.52650
       H    17.00096    5.28978   15.36914
       O    17.09297    6.15132   15.81213
      H1    16.41991    6.74092   15.36600
       H    12.56546    1.61355    9.07607
       O    13.09340    0.83665    9.37580
      H1    12.39777    0.31882    9.88980
       H     9.78575    0.53239   16.00944
       O    10.49613    0.01005   15.62688
      H1    11.24060    0.58677   15.38282
       H    14.00088    6.25544    7.90330
       O    14.92794    6.51464    7.93605
      H1    15.10660    6.62504    8.89520
       H     8.43698    2.68462   10.17078
       O     9.14425    2.18157    9.75318
      H1     8.81467    1.22670    9.72712
       H     9.67986   -3.45112   13.67284
       O    10.52690   -3.01081   13.50463
      H1    10.27052   -2.09351   13.23318
       H    14.64728    7.78614   15.03393
       O    15.43875    8.24319   15.25766
      H1    15.37983    8.55267   16.17319
       H    19.34222    2.27803   16.51900
       O    19.23574    2.16137   15.55429
      H1    18.45099    2.74426   15.33049

