180
frame 3 | Written by MDAnalysis XYZWriter (release 2.4.3)
       H    -4.67778    4.57887   16.63249
       O    -4.90755    5.07654   17.42628
      H1    -4.01106    5.19862   17.79807
       H    -2.10841    5.76503   18.48786
       O    -2.14517    5.27932   17.65314
      H1    -1.47736    4.52694   17.83438
       H   -10.52311    7.24567   13.33091
       O    -9.71119    7.60164   12.88774
      H1    -9.05471    7.62573   13.58224
       H     1.07491   14.90512   16.53481
       O     1.35154   15.06601   17.42534
      H1     0.52861   14.99642   17.90306
       H    -8.39149   15.71229   17.93823
       O    -9.03667   16.19724   18.37979
      H1    -9.71456   16.34398   17.69657
       H     0.03448   11.41922   12.00336
       O    -0.25906   11.41075   11.09285
      H1     0.34126   10.84622   10.62921
       H    -8.61487   15.64007   14.99366
       O    -9.36986   16.25342   14.90998
      H1    -9.82555   15.92394   14.09963
       H    -3.15553   11.43472   12.29017
       O    -2.94712   11.99411   13.02761
      H1    -3.04680   12.94773   12.73099
       H    -3.44432    9.55552   18.74588
       O    -3.22771    8.59144   18.68546
      H1    -3.47694    8.34802   17.76114
       H    -2.69202   17.66607   10.12576
       O    -3.25074   18.10104   10.80571
      H1    -2.67196   18.31791   11.49660
       H   -14.02226   16.07905   16.96702
       O   -13.57231   15.46855   16.34468
      H1   -13.23642   14.74083   16.87337
       H     0.31554   19.78136   19.76989
       O     0.34290   19.31418   18.88459
      H1     0.90426   18.57400   19.10716
       H    -6.99754   15.90933   11.79040
       O    -6.34780   15.18048   12.05638
      H1    -5.65762   15.75528   12.48383
       H    -0.70840   15.15654   15.52472
       O    -0.10145   15.38877   14.77761
      H1    -0.55297   14.93139   14.01890
       H   -11.74665   17.74054   19.80933
       O   -11.81619   18.60651   19.44606
      H1   -12.07105   18.44852   18.54998
       H    -4.31158   11.57886   18.56140
       O    -3.46982   11.09356   18.30317
      H1    -3.30313   11.50346   17.41458
       H    -8.06697   12.16201   12.02550
       O    -8.61346   12.72130   12.65089
      H1    -9.21921   12.04118   13.07053
       H    -5.72764   10.94478   15.77829
       O    -5.76435    9.99271   15.92681
      H1    -6.26624    9.68418   15.16188
       H    -6.66781    7.81262   13.88405
       O    -7.34207    8.32479   14.33157
      H1    -7.71184    7.69000   15.00624
       H     1.07496   16.61758   14.46914
       O     1.59191   17.44081   14.18110
      H1     1.73818   17.17952   13.24535
       H   -10.14557   10.10812   14.54915
       O    -9.93227   10.45628   13.64232
      H1    -9.31647    9.74865   13.33491
       H    -7.91852   10.42653   18.23329
       O    -7.89500    9.66014   17.54090
      H1    -7.10792    9.91173   16.98757
       H    -8.77648   19.03096   17.87252
       O    -8.39182   18.72215   17.05152
      H1    -8.25161   17.76375   17.11625
       H     0.42422    6.94818   16.38133
       O     0.15189    7.13292   15.51447
      H1    -0.80372    6.88456   15.46528
       H    -5.97554   16.37342   18.04899
       O    -6.26778   15.82246   17.31955
      H1    -5.74372   16.30774   16.61316
       H    -6.96824   14.66796   13.66941
       O    -7.36381   14.46151   14.53860
      H1    -7.93405   13.75750   14.24708
       H    -9.71433   14.21305   11.99413
       O   -10.36178   14.79102   12.37771
      H1   -10.74686   15.27240   11.59822
       H     1.08694   10.20706   15.17240
       O     0.22061    9.87257   14.86863
      H1     0.41899    8.96256   14.77700
       H    -1.96375   14.22614   17.64153
       O    -1.21037   14.04256   17.06539
      H1    -1.20295   13.18519   16.70998
       H    -0.47670   18.30627   13.46852
       O    -1.24820   18.50867   12.89669
      H1    -1.95104   18.58634   13.54277
       H    -7.65078   11.20062    9.94176
       O    -7.24890   11.16928   10.80407
      H1    -6.47195   11.79561   10.78165
       H     0.46366    7.77740   18.25249
       O     1.13972    7.12124   17.93082
      H1     1.38769    6.80235   18.80177
       H   -12.84577   12.48091   18.49605
       O   -12.87439   13.44912   18.36663
      H1   -13.80220   13.63650   18.52117
       H     2.13680    8.50014   17.31286
       O     2.49708    9.39120   17.26832
      H1     3.11180    9.11393   16.50553
       H    -4.24163   14.13435   14.22833
       O    -4.04187   14.92793   13.68903
      H1    -4.08469   15.60390   14.36597
       H   -12.04463   16.25006   16.41889
       O   -11.31312   16.91946   16.55424
      H1   -10.59471   16.58629   15.94754
       H     1.00184   15.96426   11.35906
       O     0.86122   16.92066   11.66997
      H1    -0.13153   17.02148   11.69616
       H    -5.98450    9.73545   11.13500
       O    -5.39706    8.98591   11.10732
      H1    -4.92412    9.10829   10.27473
       H     2.17424   16.61051   18.49093
       O     2.18237   17.38808   19.04986
      H1     2.65277   18.14957   18.55215
       H    -4.23840   13.24275   10.08526
       O    -4.98189   12.85231   10.59555
      H1    -5.27217   13.59822   11.12237
       H    -4.96286   13.50127   16.26516
       O    -5.13770   12.86534   15.54780
      H1    -5.94311   13.26507   15.12539
       H    -8.21738   17.25752   11.66781
       O    -7.99706   16.86116   10.80810
      H1    -8.86573   16.55376   10.54958
       H    -2.26871   13.83506   10.32742
       O    -2.57924   14.67074    9.93386
      H1    -1.97979   14.84198    9.19329
       H     4.08956   14.64160   19.40594
       O     4.02668   13.76634   19.01824
      H1     4.57839   13.81651   18.20768
       H    -4.80797   14.90842   17.52018
       O    -4.03720   14.32170   17.61395
      H1    -4.46106   13.71050   18.29425
       H    -1.89820   15.11432   11.53065
       O    -1.78315   14.89254   12.47930
      H1    -2.67489   14.99761   12.79702
       H    -0.32754    9.11960   17.39978
       O    -0.55481    9.19443   18.36905
      H1    -1.51083    9.09892   18.42068
       H    -2.54245    6.10572   16.01537
       O    -2.64256    6.30196   15.08383
      H1    -2.92258    7.24801   15.18040
       H    -7.00435   18.41739   13.84460
       O    -7.57573   17.77773   13.33835
      H1    -8.15867   17.47766   14.04664
       H     2.46173   12.13397   15.99774
       O     3.30275   12.50783   15.72086
      H1     3.20821   13.40885   16.02512
       H    -5.91042    7.57216   11.96479
       O    -5.85525    6.66152   12.35901
      H1    -6.60126    6.12687   11.99231
       H     1.11016   11.50032   17.66202
       O     0.84173   12.18642   17.02980
      H1     1.06554   13.02031   17.45401
       H    -9.87164    9.17835   16.28084
       O   -10.78338    9.17222   15.93496
      H1   -11.32049    8.91691   16.75429
       H    -2.29220   11.72036   14.91280
       O    -2.11525   11.48914   15.79530
      H1    -1.27222   11.04494   15.81565
       H    -2.78879    9.64082   15.56330
       O    -3.37977    8.89718   15.66370
      H1    -4.31399    9.36679   15.68966
       H   -11.71345   19.15379   14.51489
       O   -12.37424   18.45905   14.74557
      H1   -11.95300   18.06596   15.49036
       H    -2.26606   18.25704   17.97690
       O    -2.56354   17.35057   18.09825
      H1    -1.83016   16.97135   18.55973
       H    -7.98339    5.87241   16.55659
       O    -8.36318    6.75120   16.22381
      H1    -8.13183    7.37981   16.95423
       H    -3.49724   17.04746   16.64665
       O    -3.96894   16.81482   15.79212
      H1    -4.11475   17.66468   15.37052
       H    -9.74819   14.42469   18.75690
       O    -9.85732   13.42741   18.96448
      H1   -10.69504   13.21338   18.60965

