180
frame 5 | Written by MDAnalysis XYZWriter (release 2.4.3)
       H     6.53735    3.65773   17.83800
       O     6.36379    4.53583   17.37812
      H1     6.17260    5.03014   18.21516
       H    10.61570    2.11493   20.10535
       O     9.92187    2.35917   19.43424
      H1    10.37737    2.77607   18.69871
       H     6.62692    2.93850   12.32311
       O     6.35737    2.21285   11.70398
      H1     5.39634    2.25940   11.67097
       H    15.73328    9.89820   17.10033
       O    15.95566   10.11532   18.03306
      H1    16.89628   10.32158   17.87314
       H    14.78817    4.55484   18.27055
       O    14.65990    5.02658   19.11373
      H1    15.62596    5.09325   19.44428
       H    14.01634   -0.80501   13.67595
       O    14.97816   -0.92794   13.92629
      H1    15.28182   -0.01616   14.07394
       H     8.32138   -0.07128   12.95904
       O     9.26110    0.17397   12.96613
      H1     9.20139    1.06268   12.55564
       H    12.22664    1.20750   10.37237
       O    12.31810    0.83417    9.46236
      H1    12.77212    0.00446    9.73627
       H    13.28095    5.78385   11.09548
       O    14.15324    5.55028   10.74714
      H1    14.42495    4.84262   11.32965
       H     8.20139    1.93436   11.03332
       O     9.14968    2.08098   10.78263
      H1     9.13684    1.44834   10.05978
       H     8.75611   10.55616   16.94232
       O     8.19467   11.24439   17.23503
      H1     8.22814   11.20555   18.20864
       H     5.23691   10.70703   16.69598
       O     5.76895   10.21322   17.38564
      H1     6.57133   10.68342   17.04910
       H    10.67722   -1.06513   16.54232
       O    11.54679   -1.56417   16.47474
      H1    12.08733   -1.14120   17.15996
       H     8.04665   -2.32175   15.32839
       O     7.56995   -3.19967   15.25518
      H1     8.38113   -3.75671   15.53898
       H    10.31573    7.44309   13.23058
       O     9.62874    7.72975   13.82496
      H1     9.92691    8.69730   13.85983
       H    15.16224    6.46728   11.89272
       O    15.53357    6.76441   12.74720
      H1    15.89310    5.95735   13.23131
       H     9.08437   -1.87484   19.79471
       O     8.91599   -2.82612   19.57298
      H1     9.77967   -2.95712   19.14154
       H    14.24493    7.97825   18.95029
       O    14.11517    7.59127   18.06270
      H1    14.35480    6.68201   18.30352
       H    15.01547    3.47826   16.48521
       O    14.88228    4.46327   16.47802
      H1    13.92754    4.55588   16.33179
       H    14.49047    8.62196   16.50440
       O    14.54347    9.20621   15.74512
      H1    13.79011    9.79207   15.76116
       H     5.64443    3.32262   14.52486
       O     5.02503    3.26934   15.27183
      H1     5.60843    3.47876   16.04476
       H    14.84716    9.94684   13.32004
       O    15.41223   10.28025   12.58326
      H1    16.15717    9.76812   12.65113
       H     9.72506   10.47208   12.69726
       O     9.93188   10.47781   13.67451
      H1    10.72075   11.05221   13.57759
       H    11.99183   -1.61613   10.97424
       O    12.71926   -1.22379   11.42887
      H1    12.27522   -0.75611   12.16778
       H    14.20054    6.23951   14.20000
       O    13.47251    6.44874   14.77218
      H1    13.72468    7.33591   15.07363
       H    13.08083    9.86443   10.96807
       O    12.40242    9.39325   11.44745
      H1    11.57065    9.55267   10.94210
       H    18.38992    7.40082   18.79764
       O    18.51525    7.36099   19.79037
      H1    18.12184    6.52090   20.13059
       H    18.87002    5.93997   15.13182
       O    17.99192    6.12374   15.54329
      H1    17.45980    5.46111   15.10626
       H     7.52048    7.72057   11.10528
       O     7.41236    7.40227   11.98931
      H1     8.24854    7.58405   12.44119
       H    11.08088    5.16358   11.98177
       O    10.91049    4.79269   11.08925
      H1    10.47771    3.93524   11.31863
       H    12.88774    6.93209   12.83763
       O    12.13905    6.90774   12.21854
      H1    12.27855    7.79482   11.81250
       H    18.57898    2.75708   15.83312
       O    17.93514    2.19611   16.24892
      H1    18.42078    1.92953   17.04118
       H    12.79649    1.97973   13.05364
       O    12.27119    1.83775   12.31481
      H1    11.58611    1.19600   12.60850
       H    10.00244    8.76329   16.17846
       O    10.41042    9.05744   16.97965
      H1     9.95001    8.35765   17.49882
       H    11.87558   -1.29916   14.44925
       O    12.29708   -0.64190   13.88002
      H1    12.74459   -0.02973   14.44954
       H    16.17858    1.63671   17.06229
       O    15.23078    1.78215   17.04916
      H1    14.88131    1.29495   17.83390
       H     7.50460    1.62536   17.69074
       O     7.31743    2.26680   18.40486
      H1     8.25109    2.52108   18.67143
       H    11.53013   -2.92672   17.58939
       O    11.64248   -3.65742   18.20114
      H1    12.42177   -3.36073   18.69170
       H    12.44373   11.93512   15.54070
       O    12.53768   11.25756   16.19646
      H1    11.79511   10.71900   16.03842
       H    15.99652    1.84162   12.98306
       O    15.91756    1.72089   13.93730
      H1    16.84344    1.45237   14.20289
       H    18.81557    7.76820   16.28081
       O    18.94454    8.18400   17.14471
      H1    19.91870    8.40576   17.00755
       H    13.45332   12.63894   18.13241
       O    13.98600   12.16533   18.76980
      H1    14.33998   11.35763   18.29803
       H     5.74075    8.78482   15.49087
       O     6.17137    8.10019   14.99571
      H1     5.70762    8.39836   14.20843
       H    10.77523    5.08494   15.10934
       O    10.56696    4.20548   15.26167
      H1     9.64962    4.33948   15.45353
       H    11.73691    4.44001   17.95831
       O    11.76838    3.54707   17.54078
      H1    11.24209    3.71982   16.71622
       H    13.95035   -3.24715   15.37036
       O    14.67107   -2.87261   15.91364
      H1    15.00078   -2.13729   15.32292
       H    12.55741    2.26444   15.80428
       O    13.27394    2.22566   15.20033
      H1    13.91034    1.76720   15.71677
       H     6.06139   -0.08595   16.52139
       O     6.85673    0.43368   16.30550
      H1     7.19720   -0.22583   15.66017
       H    10.05195    6.19491   10.49086
       O     9.61513    6.84392    9.86752
      H1     8.80928    6.35946    9.68497
       H     7.17032    4.84223   13.91917
       O     6.77713    4.33327   13.17808
      H1     6.63457    5.09261   12.55958
       H    15.52164   -3.13257   18.10802
       O    14.93522   -2.97870   18.87694
      H1    15.37460   -3.45166   19.62208
       H     9.11183    5.99837   19.41545
       O     8.77322    5.16015   19.81453
      H1     9.45842    4.50513   19.51352
       H    17.94713    3.46870   13.13820
       O    18.91647    3.38251   13.14341
      H1    19.04011    2.81128   12.39648
       H     9.63365    0.26135   18.96148
       O     9.33943   -0.33651   18.27492
      H1     8.39080   -0.35294   18.36248
       H     8.83830   -0.36423   15.83926
       O     9.15365   -1.12117   15.28685
      H1     9.26480   -0.65305   14.41779
       H     7.80964    6.47617   15.06705
       O     7.93633    5.55817   15.29950
      H1     7.30635    5.41869   16.04412
       H     3.71036    2.85057   19.62234
       O     2.84964    3.24070   19.24872
      H1     3.12248    4.17560   19.27508
       H    18.56850    4.36390   18.12232
       O    18.06490    4.52432   18.90030
      H1    18.49243    3.99724   19.61605
       H     9.94698    8.56558   19.55958
       O     9.54752    7.79047   19.10588
      H1    10.28881    7.18466   19.23781
       H    15.97457    3.45063   14.13487
       O    16.15571    4.37844   14.23197
      H1    15.58576    4.45602   15.02763

