180
frame 11 | Written by MDAnalysis XYZWriter (release 2.4.3)
       H    16.13562   10.26569   -7.59078
       O    15.70126   11.08988   -7.33961
      H1    15.27032   11.24705   -8.17593
       H     7.17905    0.30497   -3.48722
       O     7.68390    0.95273   -2.96585
      H1     8.54540    0.57349   -3.03917
       H     6.32955    3.10141   -7.49084
       O     6.93464    2.38587   -7.31904
      H1     6.23478    1.88055   -6.79604
       H    15.35563    1.12555    0.90079
       O    15.52680    2.01888    0.52027
      H1    16.46399    1.86539    0.28778
       H    15.03938    6.22922   -9.09007
       O    15.96407    6.02463   -9.20835
      H1    16.20497    6.76107   -9.79145
       H    16.16107    9.90119   -0.80241
       O    16.49480    9.22584   -1.42996
      H1    17.19769    9.76019   -1.84469
       H    12.59712    3.37298   -9.87480
       O    12.96786    3.37303   -8.96386
      H1    13.56440    2.61680   -9.00746
       H    13.23347    5.80763   -5.98680
       O    13.01565    5.48104   -5.11460
      H1    13.66564    5.97919   -4.61742
       H    17.95997    8.03912   -0.81073
       O    18.41324    7.37437   -0.26229
      H1    18.53274    7.88871    0.55584
       H    16.18312    7.19062   -6.40978
       O    15.98449    8.16420   -6.43160
      H1    15.85256    8.26895   -5.49844
       H    15.39645   -0.48500   -3.23064
       O    14.96636   -0.11973   -2.42983
      H1    15.59458    0.53400   -2.16218
       H    15.29374    2.68959   -2.85373
       O    15.87733    2.72779   -2.11388
      H1    15.31845    2.63582   -1.31920
       H     9.83498    1.33785   -4.88037
       O    10.67098    1.79531   -5.07634
      H1    10.75461    1.63488   -6.04547
       H    12.12113    6.05039   -8.53333
       O    12.98634    6.12055   -8.93737
      H1    13.20774    5.18144   -8.94528
       H    16.91398    2.65603   -5.02561
       O    17.16202    3.36275   -5.60670
      H1    17.97671    3.11818   -6.06556
       H    11.51170    4.85988   -4.21500
       O    10.81571    4.26537   -3.87266
      H1    10.99673    3.45648   -4.49008
       H    11.31632   11.28576   -2.64864
       O    12.23597   11.01149   -2.88353
      H1    12.73297   10.99419   -2.03769
       H    14.90066    1.51703  -11.47322
       O    14.58246    2.33188  -11.87059
      H1    15.17512    2.93912  -11.42052
       H     7.21334    6.90656   -8.18764
       O     7.96764    6.58346   -8.74880
      H1     7.46650    6.29250   -9.57614
       H    11.81840    8.85854   -3.56955
       O    12.10827    8.02132   -3.24453
      H1    12.32140    8.21778   -2.30300
       H    14.29418    0.81117   -4.79494
       O    14.92496    0.25896   -5.24486
      H1    14.76400    0.48718   -6.16678
       H     8.10099    3.72970   -6.10587
       O     8.74403    4.24665   -5.65919
      H1     8.84634    3.88842   -4.79511
       H    16.30440    4.66956   -6.13136
       O    15.71151    5.36288   -6.53136
      H1    15.99649    5.42291   -7.46741
       H    14.38832   12.54535   -2.81919
       O    15.22717   12.02557   -2.88689
      H1    15.03085   11.22019   -3.39853
       H    14.41562    8.70050   -7.24134
       O    13.60866    8.83143   -7.79492
      H1    13.28484    7.98003   -8.05977
       H    11.26328   13.24183   -5.27514
       O    11.98573   13.39684   -4.59549
      H1    11.99000   12.52869   -4.09360
       H    11.91668    3.33954    0.26537
       O    11.96626    3.69298    1.19105
      H1    12.87498    3.49980    1.59331
       H    11.08174    3.36752   -1.43231
       O    11.85536    2.78729   -1.42451
      H1    12.12157    2.89900   -2.35224
       H     9.40512    7.59502   -8.77009
       O    10.22985    8.08779   -8.86453
      H1     9.96958    8.89661   -8.39624
       H     6.97850    2.31913   -0.38321
       O     7.81449    2.23021    0.10432
      H1     8.30596    3.01486   -0.21503
       H     7.40825    5.48469   -2.00699
       O     7.66496    5.26451   -2.90316
      H1     8.39541    5.84748   -3.18599
       H    14.82688    3.53243   -5.77640
       O    14.27087    3.02221   -5.07873
      H1    13.81111    3.79457   -4.81922
       H    17.41192    3.85541   -2.37286
       O    18.27083    4.30854   -2.21838
      H1    17.99690    5.26405   -2.24650
       H    11.88188    2.19766   -7.76055
       O    11.69911    1.28977   -7.42089
      H1    11.00106    0.96810   -8.09361
       H     9.56479    4.93011    0.16524
       O     9.48650    4.40778   -0.70316
      H1     9.12719    5.02878   -1.32962
       H     8.96315   11.49123   -1.89081
       O     9.41027   11.65042   -2.72766
      H1     9.05705   11.04360   -3.45152
       H     8.70412   10.50361   -5.80645
       O     8.51116    9.92415   -5.01659
      H1     8.96146    9.15450   -5.30301
       H    13.69152    9.02065  -11.07455
       O    14.47604    9.20661  -10.52657
      H1    14.22073    8.94098   -9.60856
       H    11.62896    5.51588    1.49692
       O    11.97785    6.43404    1.65865
      H1    11.13050    6.89254    1.80934
       H    16.01312    7.60022   -0.74547
       O    15.30230    6.90535   -0.69415
      H1    15.79606    6.31588   -0.08512
       H    10.39904    7.00584  -10.61139
       O    10.45490    6.18980  -11.17763
      H1    10.54769    6.63380  -12.04756
       H    10.33169    5.88627   -1.90479
       O     9.89946    6.71409   -2.05941
      H1    10.70825    7.17615   -2.38554
       H    12.57523   10.69144    0.49411
       O    13.17603   10.90558   -0.26209
      H1    13.46513   10.01648   -0.47072
       H    13.42726   -0.68495   -4.78137
       O    12.82918   -1.32876   -4.30737
      H1    12.07184   -1.19260   -4.88661
       H     9.58108   -0.94686   -5.55768
       O    10.16372   -1.05244   -4.70104
      H1     9.55374   -1.47446   -4.09085
       H     9.76218    6.94110   -6.02121
       O     9.05557    7.04253   -5.35628
      H1     8.52106    6.17514   -5.48145
       H     7.40870    8.66370   -6.31735
       O     6.70526    8.59449   -6.90677
      H1     6.81603    9.27897   -7.62106
       H     9.70687    5.41403   -8.09970
       O    10.56931    5.20883   -7.72063
      H1    10.32520    4.69875   -6.93522
       H    13.93106   -0.70293   -8.42337
       O    13.99780    0.25913   -8.54037
      H1    13.05954    0.52554   -8.30826
       H     8.59445    7.97060   -0.91300
       O     8.14298    8.23378   -0.10486
      H1     7.45845    8.78059   -0.40571
       H    12.53540    7.43609    0.17461
       O    12.78895    8.06823   -0.49308
      H1    13.60217    7.69489   -0.86147
       H    11.43555    4.54563  -11.42276
       O    11.90932    3.71963  -11.44821
      H1    12.82798    3.90156  -11.61285
       H    14.73433   12.05577  -10.33673
       O    14.20918   11.64531   -9.61493
      H1    14.38852   10.71438   -9.93704
       H    17.39742    8.33249   -7.74824
       O    17.79743    8.86309   -8.39172
      H1    18.63709    8.40021   -8.45797
       H    10.55483    0.71740   -2.99155
       O    10.70605    0.44292   -2.03799
      H1    11.04745    1.35563   -1.70956
       H    12.69126    9.57270   -6.55869
       O    12.23820    9.81711   -5.73188
      H1    12.16399   10.79162   -5.73790
       H    16.47982    4.61977  -10.13706
       O    16.71984    4.09174  -10.94367
      H1    16.82815    4.75941  -11.64275
       H    14.53652    9.60619   -5.03384
       O    15.29107   10.11032   -4.77324
      H1    15.18833   10.75408   -5.49957
       H    19.50066    6.55883   -3.98975
       O    18.67126    7.02470   -4.16489
      H1    18.68457    7.88206   -3.69280
       H    14.11149    7.86094   -3.76879
       O    14.87139    7.28305   -4.02696
      H1    15.52968    7.40977   -3.34003

