180
frame 4 | Written by MDAnalysis XYZWriter (release 2.4.3)
       H    16.66100   -6.56570  -17.09538
       O    15.84293   -6.50690  -17.67607
      H1    15.81345   -7.42723  -17.97984
       H    14.57489   -9.70553  -13.56330
       O    14.67273   -9.57315  -14.48985
      H1    13.78613   -9.52159  -14.79120
       H    10.34945   -6.72832  -18.93544
       O    11.09249   -7.28175  -18.67329
      H1    10.65974   -8.10944  -18.86049
       H    17.94208   -7.44485  -15.52270
       O    17.98460   -6.57665  -15.95275
      H1    18.88544   -6.68164  -16.29572
       H    17.79963   -5.67290  -14.12738
       O    17.99500   -5.49644  -13.17903
      H1    17.48769   -4.63327  -13.14352
       H     9.95860   -2.91318  -13.79768
       O     9.23446   -2.69232  -13.26770
      H1     8.95673   -1.89990  -13.73144
       H    18.18179    0.16604  -11.59744
       O    18.13801    1.08890  -11.80941
      H1    18.98800    1.39775  -11.43928
       H    11.47318   -2.46748  -15.38644
       O    11.34206   -3.36135  -15.01922
      H1    11.56902   -3.98793  -15.73451
       H    13.15353   -1.60079  -11.12802
       O    13.72584   -0.90741  -11.42684
      H1    14.38757   -0.89481  -10.68873
       H     9.92561   -2.34990  -11.46850
       O     9.81466   -2.27220  -10.48042
      H1     8.90926   -2.56249  -10.26515
       H    13.71147   -4.76470  -11.09417
       O    13.29397   -3.91183  -11.14581
      H1    12.42467   -4.13276  -10.83656
       H    17.32739   -1.17692  -10.15492
       O    18.15157   -1.46860  -10.49969
      H1    18.15331   -2.48276  -10.37719
       H     8.19712   -0.00313  -14.31280
       O     8.89597   -0.50586  -14.69769
      H1     9.64566    0.12176  -14.68367
       H    13.51212   -3.32422  -12.80780
       O    13.65394   -3.02189  -13.72504
      H1    12.79845   -3.34212  -14.13352
       H    14.04221    4.12926  -18.50542
       O    13.52426    3.62623  -17.84224
      H1    13.01766    2.96518  -18.37988
       H    16.94451    2.09265  -10.13732
       O    16.46305    2.06776   -9.26128
      H1    17.12642    2.50425   -8.63635
       H    11.83507   -7.45856  -16.78213
       O    12.44832   -7.57388  -16.07602
      H1    12.78127   -8.47165  -16.18652
       H    12.90157   -1.51092  -16.63702
       O    12.62564   -1.61725  -17.59252
      H1    11.68756   -1.50324  -17.62491
       H    10.39717   -0.47017  -10.28883
       O    10.50358    0.31919   -9.76347
      H1     9.84235    0.94734  -10.10385
       H    16.78382    3.82443  -12.09022
       O    17.22018    4.57041  -11.69786
      H1    17.96607    4.51315  -12.31615
       H    16.16153    0.20083   -9.19654
       O    15.82048   -0.61594   -9.55998
      H1    15.74297   -1.18393   -8.76175
       H    16.15520   -3.80182  -18.18309
       O    16.52653   -4.16856  -19.00258
      H1    16.19339   -5.06792  -18.92738
       H    10.30218   -7.23565  -14.92204
       O     9.35509   -7.18566  -15.19504
      H1     9.05430   -6.60895  -14.52127
       H    15.01689   -2.99076  -16.21835
       O    15.89544   -3.12583  -16.71558
      H1    16.53197   -2.71733  -16.10041
       H    14.21837   -9.42801  -18.51235
       O    15.05834   -9.72090  -18.92711
      H1    15.51880  -10.06126  -18.17345
       H    17.37539   -1.42200  -14.73221
       O    17.78724   -2.29634  -15.02611
      H1    17.37992   -2.86101  -14.35955
       H    15.11828   -5.89764   -9.30749
       O    15.76463   -5.73897   -8.56127
      H1    16.16352   -4.92866   -9.01656
       H    17.95004   -4.03618   -8.34630
       O    17.72035   -3.95956   -9.31415
      H1    18.56900   -4.11897   -9.81135
       H    18.68994   -7.77541   -9.12007
       O    18.54183   -8.06289   -9.98863
      H1    18.96820   -7.30789  -10.49941
       H    16.26119   -2.29136  -12.90573
       O    16.26523   -3.26889  -13.10516
      H1    15.35107   -3.35184  -13.46854
       H    12.28957   -3.65332  -17.77588
       O    11.89220   -4.50014  -17.59858
      H1    12.22070   -5.14798  -18.24689
       H    12.96310    1.88098  -11.94695
       O    13.72296    1.59435  -12.47722
      H1    13.79165    0.60391  -12.30577
       H     9.43981   -4.51378  -15.68547
       O     8.77841   -4.31369  -16.31825
      H1     8.02870   -4.15198  -15.73408
       H    14.79767    3.06029  -16.70652
       O    15.58976    2.85166  -16.12908
      H1    15.36926    1.87445  -15.99383
       H    10.33168   -4.03671  -10.10279
       O    10.89851   -4.83852  -10.21391
      H1    10.62645   -5.19828  -11.07830
       H    15.16987   -6.16633  -13.93861
       O    15.47360   -6.56890  -13.06481
      H1    16.37554   -6.28337  -12.87663
       H    17.80911    0.67168  -19.25371
       O    16.90969    1.02558  -19.08135
      H1    16.93915    1.25636  -18.12549
       H    12.27959    0.44040  -17.62031
       O    11.69735    1.24611  -17.63750
      H1    11.13722    1.12367  -16.83209
       H    13.76304   -6.55035  -15.68118
       O    14.33050   -5.78203  -15.50181
      H1    14.99398   -5.94057  -16.21318
       H    16.40604  -10.04234  -16.04137
       O    16.27525  -10.74967  -16.66255
      H1    17.15371  -11.02781  -16.73026
       H    12.57684  -11.22743  -16.80880
       O    12.34616  -10.30052  -16.70043
      H1    11.91912  -10.09933  -17.55275
       H     8.93305   -6.19707  -12.20154
       O     9.82329   -5.84480  -12.49492
      H1    10.33247   -6.67788  -12.54225
       H    19.32194   -3.74311  -16.98392
       O    19.04561   -3.25273  -17.74337
      H1    18.18149   -3.65372  -17.88305
       H    12.78016   -4.57970   -7.35192
       O    12.82624   -3.84496   -7.99983
      H1    12.80172   -4.23974   -8.87116
       H     8.16844   -5.92993  -18.68115
       O     8.83050   -5.66708  -19.36668
      H1     9.18880   -4.92041  -18.86318
       H    16.51434   -8.53917  -14.07340
       O    17.28727   -8.75480  -14.65451
      H1    18.07491   -8.65191  -14.10282
       H    11.64150    1.23090  -14.22039
       O    10.82938    1.36793  -14.68075
      H1    10.66460    2.31089  -14.61312
       H    13.41400   -1.47356  -14.52630
       O    12.85617   -0.81892  -15.07542
      H1    13.60049   -0.32859  -15.44751
       H    15.55500   -0.55394  -16.61833
       O    14.86009    0.09288  -16.71552
      H1    14.62524    0.21523  -17.61047
       H    19.75595   -9.81339  -17.70099
       O    18.85209   -9.87075  -18.07827
      H1    18.58928   -9.03405  -18.38504
       H     6.33387   -3.64059  -14.42873
       O     7.02119   -4.29665  -14.10479
      H1     7.81347   -3.71633  -13.83979
       H     7.74101   -6.70667  -16.62096
       O     7.23065   -6.79856  -17.46857
      H1     6.32916   -6.97445  -17.16489
       H    18.35855    2.23673  -15.42872
       O    18.16736    3.20508  -15.50369
      H1    17.21581    3.15957  -15.86212
       H    14.68836   -6.94876  -11.27652
       O    14.14550   -6.66473  -10.53283
      H1    14.03955   -7.54611  -10.13519
       H    12.48704   -7.39733  -13.12575
       O    11.64671   -7.86502  -12.85013
      H1    11.97015   -8.33170  -12.05509
       H    13.31961   -6.58292  -19.93586
       O    13.59993   -5.82409  -19.35832
      H1    14.30920   -6.05002  -18.83044
       H    16.60474    0.63932  -13.53429
       O    16.63825    0.06576  -14.32195
      H1    17.20901    0.53628  -14.96822
       H    15.69998    3.01807  -14.35897
       O    15.71009    2.99576  -13.38987
      H1    14.92351    2.35788  -13.31007
       H    19.22264    0.06874  -16.86370
       O    18.84208    0.67856  -16.19006
      H1    19.59401    0.87869  -15.65001
       H     9.29442   -1.44737  -16.57516
       O     9.80807   -1.99629  -17.18552
      H1     9.50359   -2.82860  -16.87103

