180
frame 9 | Written by MDAnalysis XYZWriter (release 2.4.3)
       H     3.73483    8.12421  -13.73645
       O     3.78419    7.81469  -12.81062
      H1     3.90528    8.65401  -12.33794
       H    10.92876   10.97151  -16.39021
       O    10.88156   11.97923  -16.28677
      H1    11.56163   12.12562  -15.64420
       H     9.00402   10.95518  -10.71951
       O     9.48230   10.83118  -11.53420
      H1     9.59689    9.87445  -11.60098
       H     6.48608   13.01116  -12.19395
       O     6.39913   13.98291  -11.98555
      H1     5.66148   14.17014  -12.57180
       H    15.89260   10.66696   -7.23619
       O    15.65802   11.62452   -7.27270
      H1    15.02328   11.68752   -8.04766
       H     3.22054   10.61095  -12.00683
       O     4.09503   10.22798  -12.11270
      H1     4.45430   10.36403  -11.22665
       H     7.54081   10.16474  -15.29803
       O     8.32348   10.43061  -14.75764
      H1     8.43388   11.37766  -14.93866
       H     8.84725   14.47714   -6.05369
       O     9.62423   15.03948   -5.85868
      H1     9.38312   15.40586   -5.02038
       H     5.12679    8.63407   -5.82831
       O     4.22368    8.50583   -5.47887
      H1     3.76489    9.01275   -6.14273
       H    12.23755    8.85842  -13.38498
       O    11.60718    8.52700  -14.07139
      H1    11.93870    7.67146  -14.43404
       H     9.83296   17.63262  -11.51162
       O     9.96891   18.62066  -11.43615
      H1     9.89741   18.88050  -12.38229
       H    11.69012    5.15003   -8.31725
       O    12.40078    5.77956   -8.52926
      H1    13.13222    5.37214   -7.95289
       H     9.46919   13.70709  -14.18552
       O     8.96848   13.19974  -14.87469
      H1     9.73745   12.84378  -15.43010
       H    11.07433   11.54222   -9.08365
       O    10.52790   11.99652   -8.42568
      H1    11.08635   12.80141   -8.30553
       H     5.78886   11.04193  -17.04658
       O     6.21354   10.20490  -16.66444
      H1     6.74388    9.93257  -17.44789
       H     7.25637    7.43885   -7.87480
       O     7.90707    6.74955   -8.30433
      H1     7.37331    6.23204   -8.97978
       H    10.32185   15.82227   -8.72583
       O    10.78138   15.10150   -8.35621
      H1    10.23776   15.06992   -7.52193
       H    15.68006   11.05864  -14.60395
       O    14.84902   11.10989  -14.09815
      H1    15.18696   11.70481  -13.36749
       H    12.75858    5.89810  -15.10731
       O    12.69897    5.88500  -14.14679
      H1    11.78593    5.48212  -14.04994
       H    13.37028    8.65360   -6.71554
       O    12.82100    8.47654   -7.50834
      H1    12.54378    7.59898   -7.18567
       H    10.96045   14.00593   -4.81905
       O    11.76001   13.93855   -4.31422
      H1    11.51095   13.26121   -3.66436
       H     8.86634    8.40988   -8.78235
       O     9.03768    9.38871   -8.77392
      H1     9.46382    9.56500   -7.89980
       H     8.77767    8.06401  -12.34269
       O     9.56676    7.48772  -12.44020
      H1    10.11019    7.96350  -13.09382
       H     6.87190    6.17176  -15.32412
       O     6.25128    6.87066  -15.61205
      H1     6.77040    7.34419  -16.30492
       H    11.85862   14.71324  -14.80223
       O    11.15476   15.30331  -14.52855
      H1    11.05468   15.96920  -15.27365
       H     3.69551    9.67953  -15.29200
       O     3.92320    8.70821  -15.44828
      H1     4.92080    8.74084  -15.59770
       H     4.62123    9.46789   -9.55125
       O     5.37538   10.14314   -9.50379
      H1     4.90578   10.98627   -9.67804
       H     5.63492   11.43785   -6.77643
       O     6.38781   11.13777   -7.28898
      H1     6.05325   10.76008   -8.12350
       H    15.92769   12.83550  -11.49851
       O    15.06801   12.76387  -11.91714
      H1    14.91732   13.51477  -12.46788
       H     8.57799   10.72909   -4.39481
       O     8.19008   10.06594   -3.79818
      H1     8.50610    9.24692   -4.20725
       H     6.34221    4.69674  -10.04309
       O     6.67890    5.53447  -10.39531
      H1     7.50407    5.29456  -10.85257
       H    13.53920    9.01312  -10.68569
       O    14.07433    8.99970   -9.86397
      H1    13.50064    8.72732   -9.20689
       H    10.73116    8.67954  -15.77165
       O    10.14361    9.19486  -16.35809
      H1     9.53558    9.56392  -15.67002
       H     3.51401    7.20935   -9.12454
       O     3.38885    7.78181   -9.92306
      H1     3.48887    7.23741  -10.69155
       H     9.65082    5.11202  -10.22262
       O     9.24634    5.15533  -11.13562
      H1     9.31852    6.10291  -11.39489
       H     7.13059    9.53735  -11.74232
       O     7.17616    8.57402  -11.67749
      H1     6.85011    8.36332  -10.80185
       H     9.54471    8.15076   -5.86635
       O     9.03194    7.66057   -5.23704
      H1     9.45347    6.80857   -5.35391
       H     7.45258    7.99661   -6.05127
       O     6.66623    8.37262   -6.55715
      H1     6.91683    9.29336   -6.78754
       H    10.78125   12.11106  -11.67989
       O    11.70889   12.37643  -11.88893
      H1    11.71254   13.32140  -11.63261
       H     9.92958    5.33498  -13.38208
       O    10.28455    4.63118  -13.95972
      H1    10.57448    3.99628  -13.24859
       H     6.39124   15.12305   -9.95840
       O     6.58066   15.50568   -9.11777
      H1     7.11076   14.74815   -8.70268
       H    11.31647   14.80277  -10.08869
       O    11.39575   15.13815  -11.00479
      H1    10.53053   14.81229  -11.33438
       H     8.89248   15.19562  -13.24707
       O     8.89949   14.60973  -12.47833
      H1     7.97134   14.31280  -12.52315
       H     8.88924    5.39406   -8.22610
       O     9.45671    4.62114   -8.17739
      H1     8.78422    3.92650   -8.07288
       H     4.22043   13.10912  -15.20143
       O     4.10215   12.63154  -16.04032
      H1     3.91972   13.36803  -16.63726
       H    15.42622    8.65525  -11.15878
       O    15.74166    8.40818  -12.05035
      H1    15.24034    7.55846  -12.18787
       H     4.86663    6.13719  -12.79068
       O     5.36621    5.32703  -12.83974
      H1     6.00708    5.43973  -12.02738
       H     8.64423   13.37077   -8.35677
       O     7.84887   13.60392   -7.91756
      H1     7.21032   12.84503   -8.06820
       H     7.24662   15.13526  -15.59181
       O     7.22104   15.80410  -14.82580
      H1     6.29217   15.98322  -14.67446
       H    13.81110   10.30829  -12.79900
       O    13.11571    9.95112  -12.17666
      H1    12.54113   10.75234  -12.05659
       H     7.93439   16.91585   -9.17521
       O     8.82785   17.21655   -8.93449
      H1     8.81367   18.19069   -9.05852
       H    11.90530   16.03277   -7.85039
       O    12.61879   16.62575   -7.50791
      H1    12.93320   16.96200   -8.38767
       H    14.11461   12.37315  -10.01324
       O    13.88728   11.83547   -9.24476
      H1    13.88674   10.94807   -9.68950
       H     4.39034   14.74546  -14.03229
       O     4.24502   13.85388  -13.67807
      H1     3.30698   13.72140  -13.45127
       H     4.16554   13.59518   -9.68454
       O     4.69493   12.84789   -9.98008
      H1     5.16226   13.20384  -10.70666
       H    11.28416    9.70926   -6.93969
       O    10.48244    9.99390   -6.47654
      H1    10.50140   10.91441   -6.71049
       H    12.84556   12.76258   -5.19529
       O    13.54218   12.06970   -5.22321
      H1    14.07437   12.16600   -6.01301
       H     7.90317   14.32720  -17.73079
       O     7.50481   14.11038  -16.90497
      H1     8.26066   13.94835  -16.34244
       H     6.10695   11.12143  -13.09106
       O     6.86979   11.25278  -12.54206
      H1     7.62862   11.12848  -13.12945
       H    13.33026   12.06284  -14.43536
       O    12.50580   12.59483  -14.43388
      H1    12.32950   12.61649  -13.49730

