180
frame 3 | Written by MDAnalysis XYZWriter (release 2.4.3)
       H     7.03476    4.82419  -19.22354
       O     6.15427    5.18511  -19.03640
      H1     5.83339    4.65579  -18.29429
       H     4.14719    6.46354  -12.75615
       O     4.41334    7.41053  -12.79531
      H1     3.63645    7.77029  -12.33788
       H     6.67998    9.18590  -15.14278
       O     6.88079   10.04364  -14.79585
      H1     7.03025   10.50052  -15.60330
       H    -1.49372    0.41301  -13.79100
       O    -1.40983   -0.22346  -13.02694
      H1    -2.20904   -0.07422  -12.48380
       H    -2.24748   -3.30821  -13.22998
       O    -2.36070   -2.70965  -14.01316
      H1    -2.02549   -1.85333  -13.73635
       H    -3.56126    2.03312  -18.08134
       O    -3.15710    1.48385  -17.45642
      H1    -2.40281    1.25371  -17.96174
       H    12.59066    4.71381  -17.47428
       O    11.79813    5.27056  -17.17586
      H1    11.07232    4.59575  -17.21516
       H     2.51924    1.68997   -9.17259
       O     1.98078    2.30707   -9.63249
      H1     1.83995    1.85719  -10.44948
       H    -3.78111    5.91177  -18.25626
       O    -3.07803    5.82190  -18.92454
      H1    -2.54102    5.21324  -18.38758
       H     4.46059    3.23263  -10.11003
       O     5.25418    3.10058  -10.58506
      H1     5.62704    4.00496  -10.64136
       H     3.82007    2.16553  -13.36594
       O     4.30111    1.45602  -12.90596
      H1     4.71588    1.88939  -12.12412
       H     9.86285   -2.66146  -13.78232
       O     9.10802   -2.23334  -13.27072
      H1     8.86705   -1.40355  -13.80229
       H     0.67549    4.61346  -13.25122
       O     0.61248    4.84492  -12.27362
      H1     0.73463    3.98687  -11.85628
       H     6.31898    2.45098  -14.61874
       O     6.57601    1.58881  -14.34883
      H1     5.86404    1.44494  -13.68366
       H     7.84409    0.46559  -14.58647
       O     8.47837   -0.19800  -14.93903
      H1     9.33840    0.29930  -14.82581
       H     0.27896   -2.16963  -12.70548
       O    -0.02308   -2.46888  -11.83118
      H1     0.53678   -3.14808  -11.47407
       H     1.29495    2.21613  -13.30648
       O     1.90036    2.59063  -13.97059
      H1     1.31598    2.93178  -14.67086
       H    -0.19803    0.87964  -12.18790
       O     0.11926    1.79731  -12.08755
      H1    -0.80337    2.11436  -11.78492
       H     8.94270    6.15096  -17.47619
       O     8.63223    7.11676  -17.39512
      H1     9.21115    7.56437  -18.06814
       H     2.00474   -0.55064  -10.02229
       O     1.62527   -0.33930  -10.91517
      H1     1.04117   -1.02137  -11.17834
       H     0.64198    3.99331  -19.58396
       O    -0.21303    4.29553  -19.22671
      H1    -0.30311    3.69074  -18.45147
       H     4.24498    1.57670  -18.67549
       O     3.83115    2.32187  -18.17784
      H1     3.67716    1.88981  -17.30441
       H     3.68199   -5.99330  -16.10990
       O     4.30408   -6.71632  -16.19902
      H1     3.90944   -7.28257  -16.84608
       H     9.25680    3.30993  -16.23232
       O     9.43223    4.06583  -16.81072
      H1     8.91667    3.74974  -17.56912
       H     2.53148    0.44502  -16.14500
       O     3.49065    0.36227  -15.77474
      H1     3.45475    0.47405  -14.77508
       H    -1.20037   -2.89468  -17.15670
       O    -1.35701   -3.57356  -16.54531
      H1    -1.61739   -3.03164  -15.76332
       H     3.28416   -0.87862  -11.56909
       O     3.96284   -1.57646  -11.62687
      H1     4.34645   -1.39991  -12.49895
       H     4.52602    7.22226  -16.60638
       O     3.78845    6.60636  -16.53018
      H1     3.26649    6.94154  -15.79279
       H    -0.98942   -0.80326  -18.64397
       O    -0.96286   -0.40740  -17.80685
      H1    -1.87287   -0.62415  -17.50971
       H    -3.19989    1.06038  -15.56789
       O    -3.52701    1.25076  -14.68231
      H1    -3.61074    2.23551  -14.70074
       H     4.44410    5.90220  -19.54388
       O     3.53400    6.20873  -19.70500
      H1     3.79934    7.18785  -19.63692
       H     6.66646    6.84463  -15.54279
       O     6.26465    7.63409  -16.00137
      H1     6.87932    7.65252  -16.77494
       H    -2.30648    8.42820  -18.86434
       O    -1.92975    8.60981  -18.02158
      H1    -1.24832    9.24461  -18.27763
       H     8.00897    5.19517  -15.42443
       O     7.50406    5.61271  -14.73880
      H1     8.15923    6.03068  -14.16839
       H     6.44313   -1.01655   -9.42767
       O     5.98645   -0.22855   -9.76795
      H1     5.27602   -0.59316  -10.31535
       H     1.28195    8.32347  -15.48130
       O     2.12270    8.06267  -15.05797
      H1     2.64154    8.78886  -15.24758
       H     1.32821    4.88735  -18.11254
       O     1.60997    5.01263  -17.21987
      H1     2.37235    5.59359  -17.37115
       H     9.49399   -4.94578  -15.93844
       O     8.97430   -4.29171  -16.41932
      H1     8.09004   -4.27072  -15.99496
       H     5.49714    4.80605  -15.69585
       O     5.41792    4.08353  -16.29687
      H1     4.66402    4.28167  -16.80895
       H     1.20708   -6.59401  -18.38245
       O     1.97176   -6.06811  -18.15550
      H1     1.93514   -5.32694  -18.74878
       H    13.01909    0.23884  -18.12123
       O    12.24866    0.79562  -17.85314
      H1    12.29296    0.74697  -16.89384
       H     3.85945   -3.32119  -13.41331
       O     4.53582   -3.32384  -14.05951
      H1     4.03913   -3.13351  -14.84992
       H     7.83554   -5.64865  -18.39726
       O     8.47289   -5.12453  -18.96015
      H1     8.86860   -4.53635  -18.29845
       H    -1.48337    7.83102  -16.45286
       O    -1.13105    7.61298  -15.52630
      H1    -0.73352    8.42633  -15.17853
       H    11.56097    0.77702  -14.97180
       O    10.84977    1.40455  -15.15697
      H1    10.96568    2.12513  -14.47843
       H     6.91701    2.50367  -17.01758
       O     7.63459    1.85573  -16.89109
      H1     7.29168    1.30308  -16.15778
       H     5.28827    6.75817  -10.99820
       O     5.87094    5.99828  -10.85508
      H1     6.66194    6.35339  -10.38318
       H     6.07956   -0.34071  -19.36803
       O     5.55147   -1.18637  -19.12851
      H1     6.18955   -1.77326  -19.54499
       H     6.34241   -3.89549  -14.02835
       O     7.21898   -4.21526  -14.04806
      H1     7.76214   -3.45210  -13.79442
       H     1.20811    9.79266  -17.94520
       O     0.52501   10.26818  -17.41863
      H1     0.29735   10.88324  -18.17004
       H     1.41235    6.43113  -11.95120
       O     1.66102    7.33546  -11.83185
      H1     0.94347    7.78327  -12.34588
       H     0.82635    5.01567  -15.71573
       O     0.10630    4.99266  -15.04237
      H1    -0.15314    5.91403  -14.96847
       H     2.21381    8.52819  -19.90615
       O     2.23379    8.77573  -18.94183
      H1     3.17756    8.91167  -18.73802
       H    -0.95329    3.68446  -16.36809
       O    -0.84187    2.86517  -16.88702
      H1    -1.80101    2.56391  -17.00778
       H     3.90261   -1.27691  -16.29135
       O     3.89032   -2.26886  -16.38747
      H1     4.40292   -2.27369  -17.25287
       H    -0.00568    1.17096  -15.94126
       O     0.49738    0.36424  -15.85672
      H1     0.16119   -0.24140  -16.53374
       H    -3.54677    4.71987  -15.38640
       O    -2.87121    5.03963  -16.00784
      H1    -2.02083    5.11296  -15.52717
       H     9.01055   -1.12915  -16.69949
       O     9.62615   -1.67659  -17.19757
      H1     9.43744   -2.58031  -16.90859
       H     1.29295   -5.12801  -16.78665
       O     1.17262   -4.80771  -15.86632
      H1     0.26310   -4.38501  -15.93614
       H     1.67705   -2.33256  -14.75260
       O     1.57311   -1.65318  -14.07547
      H1     1.21590   -0.88393  -14.64423

