180
frame 157 | Written by MDAnalysis XYZWriter (release 2.4.3)
       H    10.02842  -12.37377   -6.70901
       O     9.85988  -11.88880   -7.55620
      H1     9.34854  -11.10098   -7.28705
       H     4.32819   -7.50393  -13.96679
       O     4.54167   -7.37890  -14.88500
      H1     4.88002   -6.42885  -14.91917
       H     3.86139  -15.59075   -7.36858
       O     4.03433  -14.72078   -6.98924
      H1     4.47767  -14.34283   -7.72070
       H     1.95722  -12.20419   -6.79015
       O     2.93387  -12.10979   -6.80972
      H1     3.22756  -12.98882   -7.17318
       H     8.23413  -14.20684  -14.21664
       O     7.55420  -13.65604  -14.72062
      H1     7.70195  -12.78802  -14.30082
       H     3.46674  -11.82511  -14.59676
       O     3.60775  -12.73311  -14.49624
      H1     4.17477  -12.96866  -15.27201
       H     6.59734  -12.43277  -11.24863
       O     5.85886  -11.90833  -11.64142
      H1     5.53688  -11.42036  -10.90290
       H     0.12162   -8.90516  -15.25523
       O     0.50672   -9.65490  -14.81819
      H1     0.66366  -10.28241  -15.56557
       H     4.41226  -15.12187  -11.04969
       O     4.98422  -15.60793  -10.40814
      H1     5.59567  -15.93695  -11.14441
       H    12.20039  -11.31425  -15.58223
       O    11.45392  -11.81857  -15.17578
      H1    10.96292  -10.99663  -14.89550
       H     3.41554  -17.59219  -10.49464
       O     3.34410  -18.51542  -10.71173
      H1     2.86334  -18.46828  -11.65003
       H     8.80594  -13.27954   -7.97075
       O     8.24489  -14.12992   -7.99396
      H1     7.92450  -14.10164   -7.05276
       H     5.76566  -12.01089   -7.37512
       O     5.60849  -12.75382   -8.04935
      H1     6.52356  -13.03905   -8.15295
       H     6.05807  -16.26611  -13.77715
       O     6.09496  -16.36835  -12.85318
      H1     7.03019  -16.05021  -12.75430
       H     4.99152   -8.73009  -12.66926
       O     4.13050   -8.36297  -12.30496
      H1     3.54799   -9.11147  -12.37317
       H     4.16190  -11.37365  -18.68470
       O     3.93239  -11.47199  -17.72891
      H1     4.16194  -10.56942  -17.41876
       H     5.38580   -8.78955  -17.62886
       O     4.48162   -8.75613  -17.24348
      H1     4.64351   -8.31898  -16.39832
       H     9.66023   -9.71660  -16.03694
       O     9.86950   -9.47980  -15.10082
      H1     9.16008  -10.05555  -14.70547
       H     1.28434  -10.65502  -10.38671
       O     1.67971  -10.64989   -9.45143
      H1     1.78501  -11.58311   -9.23385
       H     5.68011  -17.91882   -8.27794
       O     5.97140  -17.09091   -7.95944
      H1     5.26346  -16.91517   -7.30771
       H     2.27452   -6.76129  -13.83632
       O     1.62792   -6.47837  -14.48953
      H1     2.17910   -5.91244  -15.08253
       H    -0.24611   -9.35640   -7.21110
       O    -0.60041   -9.53900   -8.11521
      H1     0.16424   -9.89648   -8.57291
       H     9.07123  -10.01666   -5.25043
       O     8.77078   -9.91759   -6.14828
      H1     9.00689   -9.01675   -6.39403
       H     7.36079   -6.93815   -7.53769
       O     8.26690   -7.20859   -7.31680
      H1     8.47162   -7.63986   -8.14515
       H     1.07022  -13.36157  -12.62234
       O     0.60174  -12.66297  -12.19526
      H1    -0.01796  -12.44844  -12.90815
       H     0.91737  -16.50974   -7.66878
       O     0.97295  -16.39116   -8.59959
      H1     1.45967  -15.55301   -8.60405
       H     9.76167   -9.69608  -10.08760
       O     9.25704  -10.48935   -9.93660
      H1     9.90771  -10.92704   -9.36776
       H     1.42733  -14.07270  -16.08866
       O     1.13471  -14.02113  -15.14421
      H1     1.92581  -13.83413  -14.67919
       H     3.09494   -8.46771   -6.30464
       O     2.48358   -9.22590   -6.33191
      H1     3.09249  -10.01244   -6.56160
       H     5.96416   -6.10307  -10.86954
       O     5.11480   -5.94017  -11.22246
      H1     4.74653   -6.76704  -11.37673
       H     8.17063   -6.97325  -14.74314
       O     8.72989   -7.24811  -14.02014
      H1     8.99651   -8.12230  -14.31504
       H     6.63011  -15.91890   -5.52881
       O     6.80742  -14.93669   -5.53013
      H1     6.04447  -14.52444   -5.94602
       H     9.93018  -16.42520  -11.84508
       O    10.64178  -17.04280  -11.86216
      H1    10.98502  -17.03343  -12.75857
       H     3.98235  -13.97657   -5.34535
       O     4.33540  -13.48206   -4.55165
      H1     4.95988  -14.07287   -4.17668
       H     9.83372  -14.85584  -12.99041
       O     8.93653  -15.26643  -12.80928
      H1     8.65898  -14.65302  -12.12653
       H    -0.65221   -9.67212  -12.23164
       O    -0.71722   -9.09980  -11.41801
      H1    -1.62239   -9.23452  -11.09540
       H     1.85821  -11.41989  -12.43816
       O     2.15612  -10.49586  -12.58841
      H1     1.65474  -10.28115  -13.38349
       H     1.05528  -13.49220   -9.49874
       O     2.03036  -13.43466   -9.44784
      H1     2.20281  -13.32051  -10.38977
       H     4.28883  -19.30009  -12.75016
       O     5.26141  -19.29049  -12.74942
      H1     5.46376  -18.34474  -12.83849
       H     8.04899  -14.29012  -10.04361
       O     7.46120  -14.11843  -10.74541
      H1     6.57679  -14.45434  -10.40317
       H     3.75886  -16.24150  -15.13846
       O     4.60505  -16.21465  -15.66057
      H1     4.62679  -15.26849  -15.96654
       H     1.02700  -10.97607  -17.99948
       O     1.10393  -11.13812  -17.02514
      H1     2.06406  -11.27141  -17.04938
       H     2.80724   -8.20063   -8.14606
       O     3.09200   -7.97555   -9.04172
      H1     2.30495   -8.25907   -9.53520
       H     4.77166  -12.83578  -16.99862
       O     5.00486  -13.56080  -16.40996
      H1     5.99017  -13.42822  -16.28833
       H     6.78817  -10.17993   -7.11268
       O     5.85356  -10.32541   -7.14953
      H1     5.60564  -10.12721   -8.07961
       H     4.24918   -9.46172   -9.86858
       O     4.46106  -10.37491   -9.90428
      H1     3.54314  -10.70935   -9.81456
       H    11.02194   -8.26621  -11.27985
       O    10.36484   -8.15771  -10.58305
      H1    10.83750   -7.80044   -9.82514
       H     5.89351   -5.34084   -8.40069
       O     5.57961   -6.16868   -7.99437
      H1     4.95124   -6.53615   -8.61904
       H     5.46945   -9.68322   -5.57676
       O     5.51626   -9.36853   -4.59415
      H1     4.84049  -10.01047   -4.20657
       H     7.71539  -13.51379  -16.64080
       O     7.75422  -13.38153  -17.63465
      H1     7.59591  -14.22309  -18.07150
       H     7.88364  -11.10102  -13.12288
       O     8.60392  -11.38533  -13.68115
      H1     9.22408  -11.66388  -12.99837
       H    13.18269  -11.47714  -11.81424
       O    12.82867  -11.13873  -12.66844
      H1    11.93735  -11.54713  -12.62531
       H    10.51578  -13.01977  -11.34042
       O    10.39688  -12.21360  -11.92965
      H1    10.05667  -11.63511  -11.19216
       H     6.61540  -10.36410  -12.28999
       O     6.85012   -9.54879  -12.75312
      H1     7.41318   -9.02910  -12.14914
       H    12.10506  -14.65236  -13.38241
       O    11.29336  -14.35839  -13.88781
      H1    11.49858  -13.40996  -13.91209
       H     4.42122  -13.21898  -11.52618
       O     3.59089  -13.70818  -11.83595
      H1     3.81684  -13.70392  -12.80215
       H    10.49537  -17.44452   -8.30439
       O     9.88141  -16.70339   -8.19464
      H1    10.37685  -15.99371   -8.61278
       H     8.04175   -7.01087  -12.42556
       O     7.96995   -7.11941  -11.46273
      H1     8.96339   -7.12068  -11.20040
       H     7.21670  -16.82000   -9.45847
       O     7.91071  -17.03625  -10.10593
      H1     8.58331  -16.87584   -9.44149
       H    11.03071  -15.54502  -10.81026
       O    10.89734  -14.64521  -10.42442
      H1    11.81913  -14.61137  -10.05096

