180
frame 3 | Written by MDAnalysis XYZWriter (release 2.4.3)
       H    -2.39029    4.02717    4.54352
       O    -2.92436    4.32171    3.78303
      H1    -3.67843    4.73859    4.33351
       H     1.08029   -1.46225    5.69198
       O     0.48136   -1.15274    4.94695
      H1    -0.39103   -1.40697    5.16235
       H    -3.01285   -4.19519   -0.62247
       O    -3.08940   -4.88472    0.07650
      H1    -3.90130   -4.62908    0.51489
       H    -0.47494   -1.06102   -0.19520
       O    -1.18056   -1.53872    0.36963
      H1    -1.87455   -0.87018    0.34090
       H    -3.47021   -6.05969    4.49058
       O    -4.37366   -6.41257    4.28787
      H1    -4.75053   -6.29012    5.18794
       H   -11.29494   -2.69403   -0.19339
       O   -11.39076   -1.75925   -0.39657
      H1   -10.52673   -1.37843   -0.10516
       H    -9.59747   -1.59995    7.47466
       O   -10.48211   -1.59640    7.13294
      H1   -10.46131   -2.58146    6.79895
       H    -6.35403   -6.34037   -3.06398
       O    -5.98176   -6.52069   -2.13676
      H1    -5.30001   -5.84283   -2.02891
       H    -3.70266   -0.66241   -3.42006
       O    -4.11445   -0.63369   -2.53265
      H1    -3.48931   -0.10569   -2.00328
       H    -5.89936    3.73357   -2.84084
       O    -5.54907    2.97127   -3.37274
      H1    -5.81499    3.10658   -4.31943
       H   -10.94862    2.35368    4.37546
       O   -10.91879    1.60120    5.00143
      H1   -11.54967    0.97748    4.54163
       H    -0.95195   -6.50550    2.93472
       O    -1.36939   -6.54846    3.85887
      H1    -0.60557   -6.39499    4.39061
       H    -8.27673    2.83130    6.86937
       O    -8.87540    2.11360    7.10965
      H1    -9.61055    2.17100    6.45465
       H    -5.58164   -1.05950    3.63183
       O    -5.24100   -1.68694    2.99800
      H1    -5.53165   -1.30115    2.14331
       H    -4.89677    1.12094    7.07712
       O    -4.63073    1.99717    6.76726
      H1    -5.16204    2.47078    7.42964
       H    -7.25032    4.54212   -1.18971
       O    -6.25008    4.76982   -1.38551
      H1    -6.26413    5.77539   -1.30852
       H    -7.28621   -6.59014   -0.72994
       O    -8.17325   -6.77243   -0.34335
      H1    -8.18615   -6.00798    0.29436
       H    -8.83246   -2.58422    3.43626
       O    -8.23800   -1.88048    3.20481
      H1    -7.36158   -2.29368    3.17376
       H    -7.54697    4.30075    5.71729
       O    -6.95065    4.27165    6.51446
      H1    -6.14633    4.53140    6.04237
       H    -5.83364    6.16497    4.52744
       O    -5.42794    5.30439    4.47973
      H1    -5.58867    5.12534    3.52387
       H   -12.61595    1.20036    0.85635
       O   -12.73231    0.25502    1.02255
      H1   -12.38138   -0.13578    0.22256
       H    -6.90490    2.42050    3.71817
       O    -7.83933    2.50982    3.52789
      H1    -8.06392    1.65459    4.00214
       H    -9.48541   -1.28495    1.52239
       O    -9.17975   -0.61672    0.86714
      H1    -8.22836   -0.92767    0.76416
       H    -5.06525   -3.37752    2.34840
       O    -5.16379   -4.32149    2.02683
      H1    -4.64397   -4.77061    2.73013
       H    -2.41141   -7.12533   -1.67461
       O    -2.61147   -7.43506   -0.81107
      H1    -2.71922   -6.60264   -0.40081
       H    -7.18422   -2.71219    0.62975
       O    -6.61212   -1.97119    0.47391
      H1    -6.26072   -2.34532   -0.34591
       H   -10.96534   -2.33541   -3.53353
       O   -10.23581   -1.93708   -4.06550
      H1    -9.38685   -2.22438   -3.71066
       H   -12.22632   -1.13831    4.40322
       O   -12.48069   -0.83280    5.29112
      H1   -11.78970   -1.18617    5.85547
       H    -8.74935    6.06652    1.37116
       O    -7.85232    6.32680    1.09558
      H1    -7.42672    5.50408    0.97825
       H    -2.27355   -1.18078    4.47587
       O    -2.05272   -2.09412    4.77093
      H1    -2.20602   -2.49439    3.88626
       H    -7.55558   -0.31565   -2.77808
       O    -7.49560   -1.07466   -3.42233
      H1    -6.80621   -1.59478   -2.95853
       H    -5.11398   -1.73430    8.24444
       O    -5.91673   -1.27208    7.82295
      H1    -6.54639   -1.25717    8.56680
       H   -10.16026   -4.58601   -1.72047
       O    -9.43244   -5.04347   -2.13001
      H1    -9.05485   -5.49079   -1.36026
       H    -0.20584   -2.11175    1.79154
       O     0.52480   -2.42617    2.33043
      H1     0.43205   -1.91673    3.15550
       H    -9.85898    0.93205    1.77417
       O   -10.07830    1.83500    2.14986
      H1    -9.32229    2.08407    2.73118
       H    -6.88295   -4.70158    1.68235
       O    -7.79954   -4.64222    1.30843
      H1    -8.35439   -4.80041    2.03702
       H    -2.46156   -4.34111    2.00331
       O    -2.39195   -4.02640    2.92724
      H1    -1.90846   -4.78387    3.35141
       H    -6.75198    1.67712   -2.52385
       O    -7.39576    1.11995   -2.04121
      H1    -6.87681    0.87307   -1.24917
       H   -11.09437    2.46876   -0.84391
       O   -11.50512    2.65427   -0.03118
      H1   -10.88470    2.43056    0.66265
       H    -4.96031    3.87941   -0.73562
       O    -4.23696    3.38193   -0.27919
      H1    -3.43822    3.91822   -0.40856
       H    -2.35132    1.12284    4.43774
       O    -2.55429    0.36601    3.85935
      H1    -3.54721    0.33746    4.05073
       H    -5.09537   -2.10571   -2.40826
       O    -5.80895   -2.83325   -2.23762
      H1    -5.49011   -3.43066   -2.91964
       H    -8.40867    2.57345   -1.27718
       O    -8.54183    3.49052   -0.93892
      H1    -8.96545    3.96224   -1.66994
       H    -3.27381   -4.24704   -2.74258
       O    -3.96681   -4.65218   -3.27533
      H1    -3.93700   -4.08214   -4.05460
       H   -12.17807   -2.44251    2.80579
       O   -11.46697   -1.71601    2.75370
      H1   -11.86024   -1.14070    2.10445
       H    -9.65179   -4.56690    5.53215
       O    -9.95290   -4.32206    6.43932
      H1    -9.19649   -4.39018    6.96884
       H    -7.54831   -3.17368    8.14627
       O    -7.64503   -4.15221    8.02361
      H1    -7.32803   -4.49791    8.89859
       H     1.69767   -3.84797    0.12584
       O     0.76832   -4.14128    0.14179
      H1     0.51413   -3.65437    0.95061
       H    -5.30788   -5.81387    7.75497
       O    -5.45293   -5.42981    6.88626
      H1    -6.23684   -4.90891    7.01452
       H    -6.92287   -0.08157    5.44018
       O    -6.06917   -0.57418    5.27690
      H1    -5.79687   -0.87555    6.16675
       H    -4.03553   -3.94467    7.02466
       O    -3.13017   -3.73811    7.29254
      H1    -2.91209   -2.90837    6.74723
       H    -5.39784    0.95232    0.76683
       O    -6.29141    0.85457    0.48778
      H1    -6.77430    1.29498    1.16729
       H    -9.97821   -5.59423    3.22572
       O    -9.22246   -5.41848    3.79505
      H1    -9.20558   -6.32449    4.20053
       H    -3.44315    1.06496    1.53043
       O    -3.41549    0.85812    0.56585
      H1    -3.54901    1.79746    0.22408
       H    -9.52422    0.61393    4.87890
       O    -8.55742    0.33244    4.91691
      H1    -8.59070   -0.50968    4.44408
       H     0.37966    0.16927   -1.93546
       O     0.79431   -0.05275   -1.05702
      H1     1.47788   -0.74723   -1.17654
       H    -6.23004   -0.35816   -6.01204
       O    -6.26405    0.52261   -5.57544
      H1    -6.73005    0.23447   -4.70825
       H    -6.89660    3.91572    1.63637
       O    -6.05431    4.36737    1.82543
      H1    -5.47032    3.99172    1.19449
       H    -4.90076    1.88188    4.88014
       O    -4.84388    2.08909    3.94241
      H1    -4.19009    2.77526    3.83791
       H    -1.37166   -2.86710   -2.41567
       O    -2.04926   -3.14515   -1.76748
      H1    -1.73811   -2.59919   -0.97043

