180
frame 11 | Written by MDAnalysis XYZWriter (release 2.4.3)
       H     6.18918   12.15373  -12.00214
       O     5.70965   12.96361  -11.77396
      H1     5.63593   13.41943  -12.65213
       H     2.52131   11.13069  -12.30668
       O     3.33680   10.87365  -12.76447
      H1     3.94638   11.34367  -12.17429
       H    -2.79604   10.64507   -2.59246
       O    -2.94299   10.23455   -3.44001
      H1    -2.53182   10.95106   -3.94155
       H    -1.94855   11.27412  -10.30869
       O    -2.04483   11.01700   -9.38582
      H1    -1.24862   11.07264   -8.92801
       H     5.24816    9.21789   -5.60204
       O     4.37760    9.11209   -5.23837
      H1     3.82221    8.87333   -6.02591
       H    -4.06282   16.00964   -4.81159
       O    -3.34042   15.34189   -4.92332
      H1    -3.45909   14.78647   -4.10246
       H     0.35621   10.32384    0.92257
       O     1.17188    9.89239    1.30000
      H1     1.73205    9.87727    0.50836
       H    -0.35239    8.07821   -8.40678
       O    -0.84633    7.42960   -7.86396
      H1    -0.91248    7.86502   -6.99672
       H     4.96299   11.87858   -3.38052
       O     5.88931   11.45503   -3.23363
      H1     6.18585   11.50008   -4.15672
       H    -4.82680   11.83119   -7.02090
       O    -4.46118   12.67879   -6.77157
      H1    -5.13058   13.11309   -6.21804
       H     1.13351   15.66848   -2.22517
       O     1.96447   16.17498   -1.96945
      H1     1.54167   16.98420   -1.77697
       H     1.85763   18.23434   -4.23716
       O     1.16586   18.26401   -4.85317
      H1     1.28705   17.40749   -5.33392
       H     0.92224    6.60836   -3.53594
       O     1.71631    6.46290   -4.06275
      H1     2.21762    5.80785   -3.51686
       H     1.58923    9.11140  -10.20886
       O     0.69079    9.36276   -9.86269
      H1     0.16205    8.98368  -10.58534
       H     2.84119   11.64174   -1.39263
       O     2.21974   11.95520   -2.02171
      H1     1.90467   11.16650   -2.43708
       H     5.55599   10.28570   -1.04082
       O     5.61786    9.41867   -1.45697
      H1     5.68768    9.75662   -2.35081
       H    -2.01241   16.43433   -4.21556
       O    -1.44400   17.16434   -3.84769
      H1    -0.74202   17.21910   -4.49753
       H    -3.13503   13.27275   -2.25537
       O    -2.69249   13.62117   -3.07146
      H1    -1.91475   14.13649   -2.63174
       H     1.09677   13.81336   -8.79447
       O     0.24775   13.43296   -8.64575
      H1    -0.12772   14.11320   -8.07077
       H     4.68439   11.47320    0.52953
       O     4.03025   11.80097   -0.13439
      H1     3.77889   12.63604    0.32944
       H     0.99375   12.74950   -0.71597
       O     0.15826   12.69410   -0.22743
      H1     0.32324   13.32856    0.51095
       H     0.76865   10.99474  -10.78436
       O     1.02641   11.58006  -11.52253
      H1     0.48169   12.34708  -11.38686
       H    -0.15402   13.85446   -1.63898
       O    -0.23432   14.65092   -2.18112
      H1    -0.28099   14.28346   -3.11262
       H     0.63950   10.63813   -8.15897
       O     0.09056   11.12103   -7.50651
      H1     0.08587   12.00779   -7.97310
       H     2.71708   11.95287   -5.31756
       O     2.69068   11.42669   -6.14760
      H1     1.74360   11.43176   -6.32322
       H     0.26411   14.62637   -5.36286
       O     0.14257   13.94156   -4.70727
      H1    -0.58485   13.37467   -5.17261
       H     4.77682    7.26008   -3.82259
       O     4.81706    6.46883   -3.23954
      H1     5.78189    6.19463   -3.40858
       H    -2.27791   15.32262   -8.31594
       O    -1.97872   14.82065   -7.57063
      H1    -2.78127   14.55275   -7.15010
       H     3.89892   16.37979   -5.47974
       O     3.57988   15.43423   -5.63670
      H1     3.45138   15.34607   -6.55972
       H     4.43048    9.61902  -10.25644
       O     5.07955   10.29331  -10.20722
      H1     4.60455   11.04453   -9.79557
       H     6.37747   10.88798   -7.73555
       O     6.99861   10.73377   -8.52138
      H1     6.32537   10.43067   -9.16256
       H     8.70412   10.50361   -5.80645
       O     8.51116    9.92415   -5.01659
      H1     8.96146    9.15450   -5.30301
       H     0.94941   16.56901  -10.84362
       O     0.62794   17.09248  -10.07509
      H1     0.68221   18.01914  -10.27850
       H    -5.49823   13.91776   -9.11225
       O    -4.61783   13.60657   -9.23448
      H1    -4.41367   13.36046   -8.25950
       H     4.72885    4.46365   -6.47885
       O     5.32699    4.63742   -7.24346
      H1     4.75532    5.24332   -7.74331
       H    -1.20808    7.51343   -3.74073
       O    -0.94757    6.85190   -3.08366
      H1    -1.47246    6.12084   -3.37367
       H     4.82389   14.02756   -2.94944
       O     5.16222   14.82741   -2.53273
      H1     6.07882   14.43679   -2.45801
       H    -0.11435   14.09642  -10.37985
       O    -0.19045   13.87609  -11.31525
      H1    -1.12080   13.94550  -11.45727
       H     3.58255    7.54388  -10.04823
       O     3.12030    8.36482  -10.32727
      H1     3.28902    8.28608  -11.30970
       H    -3.83757   14.07086  -12.05436
       O    -3.04869   13.72033  -11.65408
      H1    -3.28293   13.52581  -10.71817
       H    -1.78753   10.04611   -0.58462
       O    -2.16164   10.95516   -0.64857
      H1    -1.34224   11.42501   -0.51456
       H    -3.48584    9.71221   -9.16719
       O    -4.32043    9.21935   -9.08193
      H1    -4.88538    9.88927   -8.65034
       H     2.62919   15.16728   -0.84677
       O     3.31789   14.60772   -0.32641
      H1     3.87690   14.35909   -1.06237
       H     7.40870    8.66370   -6.31735
       O     6.70526    8.59449   -6.90677
      H1     6.81603    9.27897   -7.62106
       H     1.86689    5.80910   -5.78845
       O     1.68360    5.59171   -6.71962
      H1     0.74273    5.88546   -6.81270
       H    -2.30264   12.87080   -4.61772
       O    -1.85554   12.43628   -5.38498
      H1    -2.44057   12.48364   -6.18651
       H    -2.98861    7.12373   -7.81908
       O    -3.78291    6.96530   -7.29878
      H1    -4.34578    7.63111   -7.75301
       H     4.55209    8.11265   -0.86163
       O     4.06198    7.27252   -0.70306
      H1     4.28683    6.81306   -1.51862
       H     0.95584    8.30272   -0.17713
       O     1.41097    8.12126   -1.01585
      H1     2.25862    7.82030   -0.71413
       H     4.32553   13.45597   -8.56995
       O     4.56301   12.64330   -9.01161
      H1     5.11849   12.98473   -9.70441
       H     2.98636   12.97271   -3.63013
       O     3.79476   13.17140   -4.09989
      H1     3.68809   14.00660   -4.58402
       H     0.49133   16.29106   -7.40499
       O     0.03799   16.24374   -6.53817
      H1    -0.80742   15.86819   -6.80297
       H     1.43506    8.83764   -3.07960
       O     1.73248    9.52024   -3.66088
      H1     2.61140    9.29324   -3.98709
       H     4.93386   11.95282   -6.82543
       O     5.53982   11.46877   -6.31155
      H1     4.99695   10.69658   -6.04241
       H     5.63590   17.56308   -8.34922
       O     5.48629   16.62653   -8.29765
      H1     6.24787   16.24400   -8.81632
       H     3.53092   17.36102   -2.91565
       O     3.71594   18.31566   -3.10006
      H1     3.66229   18.63695   -2.19409
       H     1.84173    7.46652   -6.98379
       O     2.20383    8.36669   -6.87298
      H1     1.49820    8.83735   -6.38703
       H     2.20746   16.03478   -9.15337
       O     2.64987   15.43050   -8.52389
      H1     3.51165   15.87865   -8.51416
       H    -0.18972    9.85433   -6.26882
       O    -0.52839    9.30119   -5.53354
      H1     0.03219    9.58648   -4.77610
       H     3.18268    6.44418   -8.22646
       O     3.86804    6.26339   -8.89161
      H1     3.61615    5.36382   -9.25558

