180
frame 4 | Written by MDAnalysis XYZWriter (release 2.4.3)
       H   -14.75866   13.63959    5.59826
       O   -13.99498   14.13118    5.89075
      H1   -13.60221   14.52821    5.07825
       H   -19.15421   12.48849    2.73831
       O   -18.73641   11.64494    2.92625
      H1   -17.92387   11.59089    2.44981
       H   -18.24892   11.21044   -7.13220
       O   -17.51848   11.50170   -7.69176
      H1   -17.52026   12.43998   -7.35864
       H   -18.25119   14.92181    2.82424
       O   -17.32784   15.32798    2.92758
      H1   -17.51110   16.19520    3.38422
       H   -17.02061   16.87514   -3.39164
       O   -16.62356   16.30741   -4.10034
      H1   -17.31481   16.41679   -4.77095
       H   -13.79265   16.28060   10.16666
       O   -14.46480   16.93368    9.96391
      H1   -14.34408   16.92072    8.99464
       H   -18.95313   15.45544   -9.55861
       O   -19.41005   15.41716   -8.69281
      H1   -19.62940   16.35777   -8.62181
       H   -12.69975   18.22404   -2.97846
       O   -12.06634   17.50800   -2.71673
      H1   -12.20535   17.57690   -1.76136
       H   -10.99277   11.18168    2.37603
       O   -11.07015   12.10437    2.22874
      H1   -10.59725   12.20466    1.39679
       H   -16.54905   13.65694    4.27649
       O   -16.40317   13.09064    4.99245
      H1   -17.17851   13.27294    5.56022
       H   -16.10052   16.12409   -8.01899
       O   -15.83853   15.89204   -7.04931
      H1   -16.52767   16.36491   -6.58391
       H   -18.51996   17.98336   -5.67994
       O   -17.72789   17.92060   -6.24398
      H1   -17.02415   18.28029   -5.67811
       H   -13.57513   18.57352    3.36095
       O   -13.16601   17.77467    2.90918
      H1   -12.28359   18.17395    2.60131
       H   -11.61640   13.31616   -3.18156
       O   -11.18447   13.14302   -2.29916
      H1   -11.48288   12.22399   -2.12414
       H   -18.87868   18.02787   -2.29177
       O   -17.92549   18.09172   -2.28615
      H1   -17.65984   18.04965   -1.28731
       H   -18.45543    9.11023    4.18903
       O   -18.72183    8.26114    3.82512
      H1   -18.52622    8.26609    2.88321
       H   -16.40095   10.03519   -1.75800
       O   -15.99767    9.38127   -1.17016
      H1   -15.22388    9.13543   -1.66849
       H   -14.20457   17.62798    1.12294
       O   -14.68373   17.82438    0.26533
      H1   -14.27517   18.69958    0.09831
       H   -19.28076   11.02512   -1.77275
       O   -18.72520   10.93450   -2.54945
      H1   -19.32043   11.05900   -3.26996
       H   -16.39323   17.83885    6.10575
       O   -15.76831   18.16725    6.77171
      H1   -16.46973   18.40030    7.42992
       H   -12.63085   15.66323   -8.06614
       O   -12.41643   16.58765   -8.16543
      H1   -12.98461   16.95254   -7.49836
       H   -19.43085   12.63601    0.47815
       O   -19.43130   13.54908    0.65183
      H1   -18.61102   13.93879    0.25269
       H   -18.10481   17.29393    8.80900
       O   -18.19925   18.23663    8.51054
      H1   -18.36159   18.71941    9.34956
       H   -10.05399   12.20850    5.35786
       O   -10.85375   11.79897    5.04033
      H1   -10.92517   12.17348    4.13980
       H   -15.13835   15.73146   -3.59179
       O   -14.17393   15.50218   -3.41014
      H1   -13.60137   16.28758   -3.38797
       H    -9.20512   19.72343   -1.00535
       O    -9.20753   19.17250   -0.24382
      H1    -8.27018   18.99559   -0.08438
       H   -14.63274    9.88741   -0.17195
       O   -13.81957   10.00472    0.30562
      H1   -14.15808   10.67910    0.90129
       H   -17.14970   14.60530   -6.96851
       O   -17.87094   13.94997   -6.83156
      H1   -18.51797   14.32979   -7.43684
       H   -16.96539   14.14537   -1.46095
       O   -16.83763   14.08692   -0.49336
      H1   -15.95252   14.42887   -0.52780
       H   -12.59550   14.67040    3.17923
       O   -12.41667   15.17845    3.97022
      H1   -12.97879   15.97967    3.77144
       H   -10.18447   14.82290   -2.75287
       O   -10.06033   15.58112   -3.35496
      H1   -10.62058   16.30413   -3.00755
       H   -13.13052   11.15109    6.74036
       O   -13.64473   10.28121    6.78431
      H1   -13.47243    9.87451    5.91125
       H   -13.85026   17.26432    6.91348
       O   -12.92965   16.94940    6.92833
      H1   -13.01058   16.09299    6.60161
       H   -12.20915    9.50871    3.70105
       O   -12.74112   10.23027    4.07214
      H1   -12.09486   10.92992    4.31595
       H   -16.90899   12.14905    0.73881
       O   -16.62487   11.34388    1.20839
      H1   -15.84973   11.70070    1.70276
       H   -14.35628   16.16751   -0.42123
       O   -14.05619   15.35358   -0.75946
      H1   -14.26378   15.43657   -1.70081
       H   -17.77968    8.46019    0.54764
       O   -18.04904    9.05756    1.26379
      H1   -17.47031    9.80565    1.12846
       H    -9.06848   15.62731    5.16178
       O    -9.28736   15.83854    4.18556
      H1   -10.25119   15.65034    4.29119
       H   -15.36218    7.39022    3.06643
       O   -15.53219    8.06069    3.66491
      H1   -16.30410    8.50403    3.36538
       H   -11.34453   13.94687   -0.65071
       O   -10.66903   14.15871    0.08653
      H1   -10.71577   15.11725    0.00877
       H   -10.44043   19.17171    1.34892
       O   -11.03547   19.15748    2.13540
      H1   -10.42484   19.02726    2.87779
       H   -15.02329   11.54421   -5.65258
       O   -14.94421   11.52405   -4.64650
      H1   -14.61980   10.61397   -4.65744
       H   -12.68139   13.64813   -6.46502
       O   -12.63461   13.89697   -7.34874
      H1   -11.75072   13.67720   -7.70910
       H   -17.88608    7.95066   -2.89365
       O   -18.50392    8.42612   -3.54735
      H1   -18.59596    9.33369   -3.15693
       H   -17.09466   20.00404   -4.68531
       O   -16.53160   19.61307   -3.94060
      H1   -17.12083   18.98041   -3.40628
       H   -13.73291   12.69719    2.23936
       O   -14.14591   11.81773    2.35494
      H1   -13.75532   11.39626    3.12692
       H   -18.16437   18.61402    5.06846
       O   -17.51136   18.02955    4.66490
      H1   -17.39171   18.61013    3.88975
       H   -18.77188   11.81997    6.11717
       O   -18.72813   12.76875    6.34284
      H1   -19.44001   13.16904    5.86229
       H   -14.53296   18.44847   -7.52254
       O   -14.15882   18.01569   -6.73756
      H1   -14.81953   17.25991   -6.79347
       H    -8.75612   18.60244    4.96019
       O    -8.95362   18.61772    3.96283
      H1    -9.04858   17.65494    3.78440
       H   -17.76823   17.08339    0.73074
       O   -17.27475   17.89020    0.52035
      H1   -16.33311   17.59138    0.64299
       H    -9.18006   13.54523   -0.75775
       O    -8.31232   13.47408   -1.27294
      H1    -8.67870   12.97897   -2.07528
       H   -13.43560   14.67525    0.71694
       O   -13.13698   14.26661    1.52989
      H1   -12.19390   13.99954    1.33367
       H   -17.87176   12.51005   -2.69969
       O   -17.27212   13.26940   -2.98089
      H1   -16.57272   12.78479   -3.39945
       H   -10.75064   18.83788    6.67513
       O   -10.91723   19.77451    6.76720
      H1   -11.89445   19.99721    6.75597
       H   -12.02501   10.39556   -0.57198
       O   -11.44426   10.68018   -1.24389
      H1   -10.59549   10.73990   -0.73090
       H   -11.42103   16.86314    0.89330
       O   -11.19648   16.99929    0.02255
      H1   -10.50609   17.68869    0.01546
       H   -12.88388   13.11338    6.83201
       O   -12.05960   12.71824    7.12445
      H1   -11.70172   12.51122    6.24712
       H   -12.95366   14.47565   -4.39585
       O   -12.63552   13.60194   -4.59195
      H1   -13.49072   13.13570   -4.46201
       H   -17.28443   11.24586    5.09199
       O   -17.63529   10.49325    5.56943
      H1   -16.84757   10.33242    6.16503

