180
frame 7 | Written by MDAnalysis XYZWriter (release 2.4.3)
       H   -15.15243   14.31061    5.62401
       O   -14.30177   14.64393    6.03546
      H1   -13.79996   14.71189    5.21118
       H   -19.18248   15.53314    2.31646
       O   -18.83438   15.28097    3.19841
      H1   -19.44386   15.78983    3.76565
       H   -16.44810   16.62732   -4.31852
       O   -16.00488   15.81255   -3.99018
      H1   -16.83527   15.33199   -3.78726
       H   -14.94758   17.28347   10.12310
       O   -15.02922   17.83883    9.36133
      H1   -14.37861   17.66960    8.71851
       H    -6.42995   14.88978    4.74553
       O    -5.89397   15.64600    4.88457
      H1    -6.36276   16.27513    4.39617
       H   -14.39133   19.81422   -2.91247
       O   -13.81354   19.11223   -3.19284
      H1   -13.41734   18.83573   -2.34451
       H    -6.17974   16.88541    7.59578
       O    -5.20141   16.90589    7.77395
      H1    -5.01252   16.84118    6.84320
       H   -10.07784   11.69912    2.54546
       O   -10.50498   12.49784    2.89714
      H1    -9.90922   13.23017    2.69903
       H    -6.76352   18.66821   -0.69795
       O    -6.22222   18.56250    0.15550
      H1    -6.35570   19.49585    0.49395
       H    -9.19139   15.82840   -0.34537
       O    -8.47369   16.36048   -0.03193
      H1    -7.90473   16.42545   -0.76099
       H   -13.05921   15.03099   10.57432
       O   -12.10056   14.90491   10.36985
      H1   -12.00177   13.95188   10.44127
       H   -17.38753   14.56450    4.62835
       O   -16.74109   14.04843    5.19356
      H1   -17.25853   13.91480    5.96865
       H   -10.88358   13.12801    8.19291
       O   -10.02497   13.20256    8.59645
      H1    -9.48489   13.77345    8.04092
       H   -13.04860   19.00794    3.28940
       O   -12.30699   18.33080    3.29449
      H1   -11.83429   18.60547    2.48521
       H    -8.13236   17.35848   -2.94696
       O    -7.43621   17.74367   -2.35990
      H1    -6.68083   17.44647   -2.93130
       H   -11.52139   13.39228   -2.82543
       O   -11.20084   13.18795   -1.93337
      H1   -11.62032   12.33083   -1.70919
       H    -7.52402   12.84935    1.99075
       O    -7.51919   12.18469    1.29621
      H1    -7.08883   11.50205    1.78362
       H   -18.00572   17.68204    9.85592
       O   -17.73290   17.09876    9.08867
      H1   -16.76800   17.23240    9.18954
       H   -18.06689   18.66086   -3.47343
       O   -17.19623   18.23802   -3.61368
      H1   -17.11248   17.80736   -2.66261
       H   -18.48027   16.98088    5.55265
       O   -19.15326   16.42674    5.98797
      H1   -19.97595   16.94847    5.94658
       H   -14.45453   10.53055   -1.38033
       O   -15.21429   11.01352   -1.75101
      H1   -15.38153   11.52586   -0.95914
       H   -11.52496   16.67298    7.89353
       O   -10.74657   16.14001    8.11322
      H1   -11.17180   15.65305    8.80509
       H   -13.47816   17.79970    1.77342
       O   -13.99338   17.76571    0.91530
      H1   -14.46865   18.60762    0.79591
       H    -6.07418   19.15834    5.03392
       O    -5.77280   19.58365    5.84084
      H1    -5.90390   18.90102    6.47858
       H   -15.78687   18.49176    5.37880
       O   -15.01656   18.99030    5.66447
      H1   -15.25298   19.51953    6.40480
       H    -3.64127   16.59663    5.14421
       O    -3.48604   17.43755    4.78964
      H1    -4.03434   17.55187    4.04517
       H   -19.73751   13.57123   -1.16258
       O   -19.69768   14.30101   -0.56297
      H1   -18.84488   14.22988   -0.18232
       H   -17.59038   18.65800    7.98120
       O   -17.34879   19.54003    7.65410
      H1   -18.01090   19.97449    8.15664
       H    -9.51216   12.13628    5.94306
       O    -9.92830   11.48431    5.39272
      H1   -10.16135   12.03593    4.61573
       H   -13.63239   15.66233   -3.36314
       O   -12.73757   15.60065   -3.00446
      H1   -12.47965   16.53777   -3.01040
       H    -9.17658   18.89762   -1.37713
       O    -9.57604   18.72142   -0.54876
      H1    -9.16099   17.87757   -0.30696
       H   -12.73949   10.90754    0.24769
       O   -12.21686   10.51185   -0.42975
      H1   -12.25170    9.58148   -0.23411
       H    -8.53738   16.81137    8.18284
       O    -7.86357   17.11187    7.52771
      H1    -7.80365   18.06620    7.64779
       H   -17.14450   13.89574   -1.22080
       O   -16.97388   13.82808   -0.25019
      H1   -16.06603   14.17437   -0.22432
       H   -12.75007   14.95891    2.85907
       O   -12.75691   15.57776    3.66412
      H1   -12.54237   16.47495    3.27698
       H    -5.77672   12.10099    4.85494
       O    -6.54804   12.00347    4.30056
      H1    -7.19786   12.33094    4.83540
       H   -12.53942   17.97652   -5.81836
       O   -11.85252   18.31858   -5.26266
      H1   -12.37665   18.63398   -4.54114
       H    -8.34390   13.93336   -2.84820
       O    -8.82475   13.97489   -3.67199
      H1    -9.62173   13.47518   -3.55527
       H    -9.02792   15.41415    2.82819
       O    -8.38268   14.73288    2.55810
      H1    -7.87942   15.19458    1.82460
       H   -14.04161   17.77163    6.49427
       O   -13.62336   17.03024    6.99674
      H1   -14.19248   16.25368    6.76368
       H    -4.38382   18.77126   -0.74057
       O    -3.48715   18.76188   -1.14717
      H1    -3.28871   17.80255   -1.02014
       H   -16.78258   12.34181    0.74913
       O   -16.71124   11.65337    1.45231
      H1   -15.78510   11.82260    1.65071
       H   -15.87311   18.32857    1.95688
       O   -16.79595   18.55409    1.84723
      H1   -17.05273   18.11928    0.98397
       H   -14.72439   15.98786    0.08674
       O   -14.53238   15.13974   -0.30917
      H1   -13.72184   15.33473   -0.81399
       H    -7.62091   14.55079    6.30148
       O    -8.37357   13.95618    6.08171
      H1    -8.85908   14.54791    5.50530
       H   -10.64062   15.54190    6.13063
       O   -10.33653   15.47358    5.23292
      H1   -11.10470   15.43706    4.66923
       H   -10.99809   14.99778   -1.39914
       O   -10.98803   15.65349   -0.64716
      H1   -11.50288   16.39195   -0.88899
       H    -4.96945   17.74580    1.14903
       O    -4.37948   17.45556    1.81225
      H1    -4.18814   16.52509    1.63791
       H   -12.95153   12.21104    1.80909
       O   -13.71926   11.63538    1.70690
      H1   -13.65747   11.08042    2.50923
       H   -17.67869   18.40560    4.94783
       O   -17.20579   17.59981    4.66514
      H1   -17.12168   17.77213    3.71444
       H   -10.50346   17.83640    3.89129
       O    -9.54678   17.91331    4.14656
      H1    -9.45514   17.13677    4.81958
       H   -17.50482   16.96277   -0.84804
       O   -16.60954   17.30640   -1.09639
      H1   -16.15701   16.54420   -1.47912
       H    -7.37985   12.95691   -0.41955
       O    -7.27220   13.41523   -1.23057
      H1    -7.03146   12.69231   -1.89105
       H   -13.24272   14.60100    0.73618
       O   -12.46474   14.28212    1.26094
      H1   -11.77074   14.83193    0.91491
       H   -12.74616   18.12831   -0.25383
       O   -12.28960   18.00212   -1.12680
      H1   -11.46093   18.31434   -0.89623
       H   -13.51947   13.28577    6.82870
       O   -12.78383   12.65475    7.13468
      H1   -12.51702   12.32072    6.29170
       H   -12.00559   14.53143   -4.44676
       O   -11.51171   13.85158   -4.95387
      H1   -12.17763   13.09733   -4.97254
       H    -6.49991   18.28970    2.63129
       O    -6.90343   18.17817    3.52327
      H1    -7.85083   18.28929    3.34155
       H   -16.69153   11.58759    4.67612
       O   -16.86881   10.75620    5.12752
      H1   -16.54451   11.00538    6.07313
       H    -9.57703   16.01489   -4.01732
       O    -9.21562   16.90788   -4.19976
      H1   -10.05168   17.33015   -4.39725

