180
frame 3 | Written by MDAnalysis XYZWriter (release 2.4.3)
       H    -5.07469   -7.77219  -10.38772
       O    -5.42161   -7.74204   -9.50858
      H1    -5.24011   -6.80473   -9.25611
       H    -6.71783   -8.44185   -6.01126
       O    -7.57535   -8.28981   -5.55580
      H1    -7.40905   -7.46051   -5.06314
       H   -11.27238   -5.00773   -4.87676
       O   -11.81204   -4.84157   -5.67551
      H1   -11.44755   -5.54054   -6.32395
       H   -11.98165   -9.59557  -10.77670
       O   -12.35315   -9.40827  -11.69991
      H1   -12.83412  -10.23222  -11.73695
       H    -9.95316   -8.05875   -9.68503
       O   -10.89401   -7.84627   -9.40736
      H1   -11.17346   -7.40015  -10.18686
       H    -8.91806  -11.54759  -13.71324
       O    -8.24443  -12.12416  -14.06970
      H1    -7.95716  -11.49321  -14.79658
       H   -13.33549   -3.29836   -8.99262
       O   -12.71694   -2.54114   -8.91120
      H1   -12.68766   -2.37440   -7.92665
       H    -9.04762   -9.14655  -16.09334
       O    -8.54394   -8.40747  -15.81745
      H1    -8.14067   -8.86948  -15.11378
       H    -8.54975   -5.70122  -12.61194
       O    -9.11163   -6.34852  -13.01309
      H1    -8.95228   -6.22205  -13.97697
       H   -10.80275   -6.58970  -12.08565
       O   -11.52420   -6.31386  -11.54611
      H1   -12.32086   -6.66339  -11.94559
       H   -12.44529  -12.65548   -8.95218
       O   -13.05741  -13.34923   -8.95721
      H1   -12.53727  -14.21494   -8.91171
       H   -15.49938   -5.05886   -8.33200
       O   -16.30971   -4.87147   -7.83307
      H1   -16.11393   -3.97506   -7.49661
       H    -8.81447   -3.47896  -10.83169
       O    -7.99756   -3.89775  -10.53101
      H1    -7.33778   -3.12180  -10.47107
       H   -10.35160   -7.30459   -7.79250
       O   -10.34667   -6.65992   -7.01007
      H1   -10.26436   -7.28318   -6.26671
       H   -16.57885   -7.63996   -9.27527
       O   -16.40484   -7.92983  -10.23014
      H1   -15.80054   -8.62803  -10.06635
       H    -5.70969   -4.25226  -13.53244
       O    -5.31183   -4.41277  -12.63111
      H1    -5.95779   -4.04192  -12.03034
       H   -11.31109   -3.02917  -10.39145
       O   -10.84129   -3.53262  -11.08180
      H1   -11.26350   -4.43220  -10.96093
       H    -9.04142  -10.22605   -7.02331
       O   -10.00236  -10.21195   -6.93238
      H1   -10.15165  -11.12448   -6.66228
       H   -16.91283   -6.65155   -7.41537
       O   -16.94574   -7.60185   -7.46295
      H1   -17.92258   -7.72701   -7.35231
       H    -8.87626   -2.10693  -12.79535
       O    -8.61191   -1.26193  -12.43501
      H1    -7.69297   -1.29690  -12.55416
       H   -13.37964   -8.47046   -3.79816
       O   -13.29158   -8.67068   -4.73930
      H1   -14.16588   -9.09328   -4.88149
       H    -6.55270   -9.46780  -13.20973
       O    -7.51009   -9.29297  -13.18693
      H1    -7.60922   -8.32669  -12.92252
       H   -12.62537   -1.81006  -13.23441
       O   -13.00889   -1.04193  -12.86889
      H1   -12.24629   -0.46730  -12.88797
       H   -10.14928   -3.46705  -13.85952
       O    -9.21532   -3.45931  -14.20177
      H1    -9.41028   -3.41637  -15.16674
       H   -11.21960  -11.72912  -12.57885
       O   -10.66718  -10.99198  -12.95127
      H1   -11.11918  -10.23913  -12.46532
       H   -15.84426   -9.44963  -12.90306
       O   -15.16053   -9.13585  -13.46357
      H1   -14.54883   -8.81364  -12.82735
       H   -14.54290  -10.28935   -9.85241
       O   -15.10092  -10.23256   -9.03699
      H1   -14.79366   -9.43034   -8.62890
       H   -12.45459  -10.46925   -8.58043
       O   -11.82477  -10.59956   -9.33577
      H1   -11.02107  -10.47517   -8.85544
       H   -14.09964  -12.39891  -11.90842
       O   -14.06464  -11.44155  -12.01350
      H1   -14.58837  -11.28592  -12.84840
       H    -5.21085  -11.75333   -9.78166
       O    -5.77573  -11.16619   -9.33657
      H1    -5.10578  -10.71013   -8.74230
       H    -6.89627  -11.35301   -7.19499
       O    -7.70563  -11.76863   -6.82363
      H1    -7.38364  -11.91016   -5.89599
       H   -17.92943   -8.89115  -10.21082
       O   -18.49659   -9.67125  -10.24706
      H1   -19.31019   -9.23892  -10.05897
       H   -11.37682  -13.00350   -5.22200
       O   -11.26443  -12.72017   -6.13442
      H1   -12.12430  -12.42188   -6.41880
       H   -11.97284  -10.45339  -14.06454
       O   -12.25395  -10.09349  -14.89570
      H1   -11.42715  -10.06715  -15.38843
       H    -4.35218   -8.59754   -6.66309
       O    -5.05635   -9.16418   -7.00228
      H1    -5.22672   -8.76671   -7.85047
       H   -14.12803   -0.70038  -10.84929
       O   -14.07210   -0.59029   -9.88011
      H1   -13.38172   -1.21230   -9.52699
       H   -11.37802   -8.72437   -4.68513
       O   -10.54553   -8.24604   -4.56475
      H1    -9.88445   -8.90979   -4.92518
       H   -12.92619  -13.58811  -11.59134
       O   -13.57342  -14.06565  -12.18464
      H1   -13.88835  -14.65244  -11.50232
       H    -8.25588   -4.49925   -8.91799
       O    -7.98917   -4.77943   -8.00981
      H1    -8.79654   -5.20658   -7.69020
       H   -12.46029   -3.07731   -6.08423
       O   -12.62466   -2.11507   -6.26545
      H1   -11.72965   -1.72016   -6.20140
       H    -8.00768  -10.48735  -11.53597
       O    -8.21076  -10.95624  -10.72658
      H1    -7.31623  -11.10733  -10.36594
       H   -16.07468   -3.63801  -12.59090
       O   -15.61838   -4.43779  -12.88181
      H1   -14.99980   -4.04668  -13.55579
       H    -6.30648   -5.01746   -8.24236
       O    -5.35382   -5.06677   -8.19770
      H1    -5.18883   -5.24437   -7.30425
       H    -8.03402   -9.44179   -9.87412
       O    -8.27785   -8.71352   -9.21214
      H1    -7.50860   -8.20823   -9.23454
       H   -10.09578  -12.88718  -11.48568
       O   -10.90924  -13.39162  -11.34662
      H1   -10.75370  -14.22708  -11.81635
       H   -14.98581   -5.75586   -5.31219
       O   -14.51612   -5.17206   -4.73829
      H1   -13.57350   -5.12465   -5.11122
       H   -12.11840   -3.73990  -12.65006
       O   -12.02809   -3.48590  -13.58262
      H1   -12.56254   -4.09689  -14.15123
       H   -13.18746   -8.46014   -6.88232
       O   -13.35898   -8.13836   -7.77516
      H1   -12.49665   -8.03567   -8.19536
       H   -16.20655   -6.05536  -14.36859
       O   -16.28075   -6.86379  -14.91702
      H1   -15.65536   -7.50805  -14.61893
       H    -4.61567   -7.53586  -13.02208
       O    -4.56319   -7.07849  -12.13846
      H1    -4.89850   -6.18514  -12.35135
       H   -14.25032  -11.81862   -7.51978
       O   -13.61660  -11.44437   -6.88293
      H1   -14.03472  -11.37895   -6.01559
       H    -9.27290   -3.17781   -5.41548
       O    -8.44689   -3.16300   -5.83365
      H1    -8.57823   -3.77766   -6.60605
       H    -8.22169   -5.50272   -3.43749
       O    -7.69967   -5.63214   -4.25418
      H1    -8.05887   -4.96596   -4.89187
       H   -13.81579   -4.43428  -16.35530
       O   -13.89270   -4.88831  -15.47248
      H1   -13.79136   -5.86205  -15.66516
       H   -14.09551   -5.74097   -9.95910
       O   -13.84037   -5.11630   -9.32706
      H1   -13.20269   -5.63541   -8.80635
       H   -16.26648   -9.85391   -5.38849
       O   -15.96599   -8.97633   -5.27535
      H1   -16.39388   -8.60272   -6.10617
       H   -15.32750   -7.01586  -11.28552
       O   -14.53691   -6.52619  -11.56415
      H1   -14.93700   -5.73009  -11.98226
       H   -10.54046  -14.79548   -8.38000
       O   -11.00174  -15.11792   -9.13942
      H1   -10.88073  -14.43517   -9.84325
       H   -12.38599   -8.23829  -15.78889
       O   -12.84757   -7.53752  -16.22031
      H1   -12.25805   -7.23732  -16.98334
       H    -7.66746   -6.80017  -15.48725
       O    -7.14528   -6.08294  -15.69768
      H1    -6.36632   -6.52057  -16.01661

