180
frame 1 | Written by MDAnalysis XYZWriter (release 2.4.3)
       H   -12.71404    6.97439   14.83104
       O   -12.09603    6.86597   15.59432
      H1   -11.82877    7.75254   15.83917
       H   -17.08491   18.75796   13.38645
       O   -18.03048   18.62155   13.16352
      H1   -18.11269   17.72920   13.64973
       H   -14.85398   14.57494    5.61559
       O   -14.19736   15.24230    5.72214
      H1   -13.67888   15.31195    4.90895
       H   -19.22634   12.49027    2.23532
       O   -19.44314   12.10752    3.09544
      H1   -19.05491   11.23279    2.96155
       H   -18.08460    5.79764    9.96244
       O   -18.48930    6.68413   10.16557
      H1   -18.66184    7.02697    9.28156
       H   -18.76189    3.90870   10.88969
       O   -18.13303    4.16820   10.18482
      H1   -17.32482    3.76711   10.58089
       H   -15.35275    7.24224   10.50411
       O   -15.66437    6.52321   11.06521
      H1   -16.60236    6.74669   11.26011
       H   -14.38717   17.26794    9.61057
       O   -15.23482   17.71388    9.56326
      H1   -15.17650   18.06832    8.67016
       H   -13.16666    8.96506   12.74753
       O   -13.64214    9.69231   13.20617
      H1   -12.88229   10.03883   13.69408
       H   -17.17686   15.87833   14.23425
       O   -18.07359   16.22807   14.46352
      H1   -17.83679   16.68149   15.31017
       H   -14.19686   10.05362    6.87720
       O   -15.03917    9.54031    6.85894
      H1   -15.09883    9.27700    7.81500
       H   -14.83727    7.73673   13.74495
       O   -14.27449    6.94035   13.48478
      H1   -14.66005    6.69689   12.59256
       H   -18.52138    6.46738   17.90197
       O   -17.63499    6.51700   17.57344
      H1   -17.50980    7.39467   17.18902
       H   -18.79315    9.77348    7.02315
       O   -18.54069   10.66412    7.15818
      H1   -17.58891   10.59764    7.16974
       H   -15.62930   13.40664    3.81914
       O   -16.16396   13.47617    4.59645
      H1   -17.06811   13.70604    4.20359
       H   -15.18867    9.43665   13.85736
       O   -15.94025    8.96804   14.34647
      H1   -16.71567    9.40832   13.94982
       H   -11.54750    9.95194    8.28078
       O   -10.62528    9.91155    8.52588
      H1   -10.21495    9.42676    7.77823
       H   -11.16471   10.41831   14.85739
       O   -11.26128   10.60133   13.90640
      H1   -10.85633    9.83610   13.44940
       H   -17.44867   17.44417   11.77699
       O   -17.25092   16.81907   11.06360
      H1   -16.37972   17.17161   10.74391
       H   -15.98234    7.36851    4.82709
       O   -15.52395    7.29786    5.70207
      H1   -15.30880    8.21147    6.02268
       H   -10.44084    8.44381   11.47035
       O   -10.98830    9.20749   11.61949
      H1   -11.34091    9.43899   10.71879
       H   -17.82388    9.33509    3.64663
       O   -18.65114    9.49245    3.16764
      H1   -18.50297    9.05904    2.33885
       H   -19.25615   10.04197    9.62201
       O   -18.70320    9.81306   10.39347
      H1   -18.32547    9.05901    9.93110
       H   -17.64999    5.32079   14.93117
       O   -18.54818    5.15004   15.24040
      H1   -18.62027    5.72656   16.00097
       H   -11.75963    6.69882    9.16618
       O   -12.74936    6.75378    9.09011
      H1   -13.10983    5.95714    8.83870
       H   -10.73626   13.14877   11.59593
       O   -11.57817   13.27335   11.12690
      H1   -11.82532   12.41654   10.69727
       H   -18.54522    9.75666   12.18739
       O   -18.32884    9.77371   13.13918
      H1   -18.74288    9.06428   13.55276
       H   -19.37033   16.42571    8.78361
       O   -18.83994   17.19617    8.97150
      H1   -18.46999   16.94536    9.86191
       H   -15.53018    4.22551   10.75490
       O   -15.84041    3.50354   11.34005
      H1   -16.12961    3.91361   12.15051
       H   -14.71919    1.33272    8.04745
       O   -15.58934    0.98847    7.74282
      H1   -16.09711    1.83205    7.78449
       H   -13.44970   15.84390   10.46475
       O   -12.82793   16.45132   10.09175
      H1   -12.71370   16.93357   10.90997
       H   -20.10995    9.61710   16.47046
       O   -19.66056    9.97247   17.23960
      H1   -18.73264    9.87747   16.94932
       H   -12.62784   11.79090    6.49280
       O   -12.70886   10.79356    6.56429
      H1   -12.75824   10.53178    5.60765
       H   -15.41610    5.55140   13.62770
       O   -16.06375    4.96392   14.07411
      H1   -15.51491    4.53094   14.73210
       H   -16.31264    6.36366    6.94287
       O   -16.47789    5.64327    7.66415
      H1   -15.56812    5.51234    7.96658
       H   -16.15456   12.66607   12.79590
       O   -16.07605   12.71908   13.75886
      H1   -17.00049   12.66024   14.03085
       H   -15.71481   11.41653    0.96731
       O   -15.78864   10.56298    1.40065
      H1   -15.79528   10.79937    2.34306
       H   -18.74574   18.50216    7.68816
       O   -18.71415   18.86891    6.80532
      H1   -19.61700   19.26303    6.78707
       H   -16.19047    3.97497    3.86796
       O   -15.27651    3.99370    3.55607
      H1   -15.33616    4.11934    2.56135
       H   -18.03469    8.85143   -0.00871
       O   -18.47495    9.62800    0.35571
      H1   -17.69227   10.02741    0.79150
       H   -15.77785    6.06816    2.88082
       O   -16.47790    6.66063    2.99351
      H1   -16.66902    6.89810    2.11892
       H   -17.69295   15.21514   11.36993
       O   -17.93514   14.28710   11.46676
      H1   -18.72282   14.27385   10.91557
       H   -13.88603    4.36207    7.45455
       O   -14.21280    4.45238    8.37622
      H1   -13.87162    3.63510    8.76794
       H   -16.59032   13.29312   10.91053
       O   -15.70178   12.82150   10.85918
      H1   -14.99577   13.42387   11.12737
       H   -14.31569    6.12146    5.74243
       O   -13.51900    5.55915    5.61568
      H1   -13.73851    5.21159    4.71055
       H   -14.06417   13.32659    2.05372
       O   -14.09715   12.64725    2.73611
      H1   -13.37249   12.08814    2.38151
       H   -18.58422   11.43490   14.39510
       O   -18.37223   12.19825   14.89412
      H1   -19.06200   12.89586   14.66174
       H   -19.26173   12.30685    6.20907
       O   -19.49476   13.04848    5.65896
      H1   -19.24000   12.71324    4.78831
       H   -16.93654   12.62931   17.65957
       O   -17.94136   12.59752   17.70817
      H1   -18.27719   12.32897   16.85321
       H   -16.74603    4.08844    7.20310
       O   -17.18012    3.18245    7.05192
      H1   -18.08048    3.38080    7.29048
       H   -14.76630   15.33999   14.99748
       O   -15.27884   15.36467   14.17599
      H1   -15.48369   14.40218   14.03176
       H   -19.80535    7.06887    7.60864
       O   -19.24876    7.81452    7.29288
      H1   -18.66560    7.27665    6.69908
       H   -13.78433   10.62521   11.52675
       O   -13.69075   10.92195   10.58871
      H1   -14.38485   11.55794   10.53382
       H   -18.24334   13.63562    8.70508
       O   -19.11324   13.31261    8.94351
      H1   -19.09086   12.41051    8.64787
       H   -12.61746   14.25202    6.33396
       O   -12.13028   13.50603    6.74035
      H1   -11.25830   13.41971    6.23558
       H   -14.43050    9.48364    9.85152
       O   -14.72256    8.61644    9.50260
      H1   -13.87995    8.10968    9.41096
       H   -13.16141   13.82817   12.02827
       O   -13.85185   14.46108   11.94786
      H1   -13.89523   14.71397   12.85300
       H   -16.80284    9.09519   15.93306
       O   -17.16764    9.15989   16.84132
      H1   -16.35142    9.03493   17.36567
       H   -17.78139    3.49020    5.39933
       O   -17.82587    3.78401    4.46561
      H1   -18.22780    4.61956    4.52568
       H   -15.99226   11.54778    4.18238
       O   -16.28343   10.58377    4.14402
      H1   -15.43328   10.17058    4.42948

