180
frame 6 | Written by MDAnalysis XYZWriter (release 2.4.3)
       H    -0.89292    2.77240   14.34214
       O    -1.24837    3.34398   15.02665
      H1    -1.34776    4.17812   14.52760
       H    -6.66803    2.77204    9.22077
       O    -7.05256    2.48519   10.10032
      H1    -7.93835    2.86333   10.06930
       H    -4.23610    7.15793   10.49993
       O    -3.70815    6.90273    9.72544
      H1    -3.99864    7.54586    9.04524
       H    -6.46554    5.43585   17.15832
       O    -6.78376    5.68634   18.03125
      H1    -6.10665    5.46478   18.66526
       H    -3.16170    5.34800   18.69245
       O    -2.92333    5.25628   17.74337
      H1    -1.97555    4.96001   17.81602
       H    -9.10003    7.55077   14.39312
       O    -8.71015    7.72938   13.50969
      H1    -7.77431    7.86713   13.80534
       H    -0.44212    2.89046   17.86144
       O    -0.62155    3.79139   17.56053
      H1    -0.81462    3.73022   16.62382
       H    -2.51915    9.19114   19.41931
       O    -3.23106    9.49690   18.81867
      H1    -2.93361    9.31526   17.96732
       H    -1.49323    2.80914    9.22512
       O    -1.10527    3.00085   10.09738
      H1    -1.48978    3.81520   10.37446
       H    -2.55525    1.19383   16.32102
       O    -2.17584    0.33039   16.49511
      H1    -1.40464    0.57732   16.96807
       H    -3.58694    5.05354    8.03581
       O    -3.47104    4.88637    7.09569
      H1    -2.96389    4.06205    7.05785
       H   -11.48213    4.14407   15.24895
       O   -11.11509    4.26592   14.38861
      H1   -10.99371    5.28946   14.42294
       H    -9.81950    4.18276   17.50146
       O   -10.72744    3.89918   17.30797
      H1   -10.80476    3.17419   17.97090
       H   -10.16724    0.86400   16.22795
       O   -10.68802    1.51847   15.76600
      H1   -10.51952    2.22164   16.35361
       H    -5.11190   -1.40736   10.14878
       O    -5.53403   -2.04559   10.79813
      H1    -6.29854   -1.50540   10.91479
       H     0.80164    0.82879   11.68930
       O     1.19952    0.28597   11.00648
      H1     1.24454    0.87925   10.23488
       H    -3.02172    0.67632   13.51173
       O    -3.89404    0.82986   13.02639
      H1    -3.99879   -0.05197   12.73116
       H    -4.13538    2.23375   11.81290
       O    -4.49154    2.63248   11.01731
      H1    -5.40287    2.35071   10.96857
       H   -10.19183    4.48903    9.94127
       O    -9.45212    5.16988    9.98174
      H1    -9.11666    4.96485   10.82701
       H    -9.62348    3.11708   14.56852
       O    -8.71406    3.00719   14.24018
      H1    -8.53147    2.20895   14.72824
       H    -6.34944   10.13076   15.82714
       O    -6.38754    9.44375   16.50692
      H1    -6.40942    8.73009   15.84550
       H    -5.77976    7.26763   13.74510
       O    -6.28735    7.50600   14.56894
      H1    -6.44658    6.63717   15.01540
       H    -6.56106    2.95949    7.46223
       O    -5.67473    2.78242    7.82661
      H1    -5.28156    3.64399    7.64864
       H   -10.05659    9.81642   15.18468
       O    -9.94531   10.16502   14.27537
      H1    -9.61951    9.38490   13.75937
       H    -7.90355   10.34321   19.22425
       O    -7.22898    9.59845   19.19774
      H1    -7.01981    9.61232   18.25122
       H    -0.18703    6.68706   16.29781
       O    -0.86460    7.40022   16.37214
      H1    -1.60887    6.90133   15.94502
       H    -2.69931   -1.12713   17.56139
       O    -2.80411   -2.06084   17.68278
      H1    -2.49168   -2.38707   16.85255
       H    -0.21968   10.73655   15.50262
       O    -0.23295   10.13941   14.76497
      H1    -0.02499    9.31137   15.21731
       H    -8.07938    5.94393   12.66015
       O    -7.65612    5.32102   11.99899
      H1    -7.70511    4.54789   12.56647
       H    -2.07584    6.08991   10.87726
       O    -1.18028    5.75967   11.16217
      H1    -0.64110    6.59599   11.05053
       H    -9.62737    2.56457   12.40811
       O    -9.63528    2.14342   11.51299
      H1   -10.55501    1.84816   11.41516
       H     0.93196    4.84583   16.55166
       O     1.26273    5.76015   16.36423
      H1     1.60941    6.00373   17.22987
       H    -5.80532   10.82650   12.20097
       O    -5.06844   10.30687   12.57579
      H1    -4.23251   10.80039   12.48351
       H    -6.01548   -1.71858   14.28233
       O    -6.70430   -1.71218   14.93082
      H1    -6.24758   -2.09467   15.68358
       H    -8.14372    0.29620   16.39101
       O    -8.72044   -0.48972   16.39120
      H1    -8.10314   -1.10442   15.84937
       H    -8.76591   -0.72953    9.45705
       O    -7.81876   -0.75608    9.68683
      H1    -7.52260    0.16582    9.79092
       H    -6.91485    6.09381    7.58252
       O    -7.22278    6.40307    8.41529
      H1    -7.71647    5.60946    8.72352
       H    -1.28203   -1.55106   13.56236
       O    -1.98872   -0.95320   13.74426
      H1    -2.07439   -0.98349   14.69543
       H    -6.37506    4.70676   14.67738
       O    -7.07280    5.09454   15.28458
      H1    -7.75852    4.43448   15.19874
       H    -6.32860    0.53381   13.31884
       O    -6.81712    0.17438   12.55475
      H1    -7.24541    0.92707   12.14995
       H    -8.29363    3.23903   19.63310
       O    -8.14311    3.27492   18.64926
      H1    -7.61963    4.07783   18.65420
       H    -4.26456    5.29470   14.30007
       O    -4.68762    4.42872   14.27004
      H1    -4.76358    4.32515   13.28737
       H    -3.30418    3.47713   16.68315
       O    -3.97898    2.82860   16.46510
      H1    -4.33937    3.38272   15.77135
       H     0.51034    2.83026   12.91892
       O    -0.16261    2.15185   12.71267
      H1    -0.48278    2.48776   11.83066
       H    -0.05380    8.16919   18.54931
       O    -0.86321    7.75210   18.84555
      H1    -1.13422    7.42680   18.00867
       H    -3.28934    6.04348   16.21612
       O    -3.20888    6.49958   15.37105
      H1    -3.45225    7.42721   15.60337
       H    -9.27227   -1.77567   13.50579
       O    -9.18144   -1.33349   12.63724
      H1    -8.47022   -0.68813   12.78736
       H    -6.94248    0.29879   18.49581
       O    -6.39553    1.05871   18.21218
      H1    -7.00183    1.78408   18.08111
       H    -1.81244    6.25017   13.91668
       O    -0.88672    5.91574   13.91351
      H1    -0.67467    5.79161   12.91244
       H    -5.48591    8.22022   11.96439
       O    -5.32790    7.25203   12.04021
      H1    -6.13378    6.87331   11.62163
       H    -2.24407    0.25157   11.80044
       O    -1.85357   -0.32071   11.15771
      H1    -0.96651   -0.34032   11.54007
       H     0.70647    6.93597   14.12819
       O     1.42459    7.58491   13.79955
      H1     2.17178    6.97336   13.74280
       H    -3.36707   -1.68663   13.32419
       O    -4.32868   -1.95974   13.21575
      H1    -4.44073   -2.27822   12.34651
       H    -3.79740   11.22165   14.86794
       O    -2.81560   11.23063   14.89966
      H1    -2.59250   10.87340   14.06668
       H    -6.12037    1.60515   16.04006
       O    -6.51422    1.33708   15.23203
      H1    -6.40157    0.42210   15.19741
       H    -3.28201    9.75360   15.54866
       O    -3.74642    9.04872   16.10948
      H1    -4.65363    9.40244   16.14136
       H     2.47320    3.05195   13.14208
       O     1.73248    3.68570   13.40688
      H1     2.18399    4.21706   14.06691
       H    -4.36250    1.26318    9.95693
       O    -4.37364    0.40872    9.51809
      H1    -4.86617    0.49575    8.72205
       H     0.70147    8.12303   12.18511
       O     0.25064    8.05913   11.38947
      H1     0.93670    8.19265   10.67542
       H    -8.51515    6.75738   17.88700
       O    -9.45937    6.78063   17.84325
      H1    -9.66321    7.60088   17.42470

