180
frame 9 | Written by MDAnalysis XYZWriter (release 2.4.3)
       H   -11.84036  -18.58655   -6.84439
       O   -11.74737  -19.09203   -7.72353
      H1   -11.55062  -19.92764   -7.29895
       H    -4.39619  -13.04994  -14.66663
       O    -5.12085  -13.23394  -15.26511
      H1    -5.11011  -12.39077  -15.79895
       H    -5.94200  -13.34956  -13.65764
       O    -6.62081  -13.35062  -12.96614
      H1    -6.61004  -14.30484  -12.77663
       H   -14.57469  -13.34286   -8.69833
       O   -15.42831  -13.43803   -8.18116
      H1   -15.61458  -14.35359   -8.20850
       H   -11.81014  -15.31010  -13.67747
       O   -11.52328  -15.44286  -14.54262
      H1   -12.13495  -16.09905  -14.84856
       H   -13.79640   -9.21684  -12.46253
       O   -13.13436   -8.50890  -12.59920
      H1   -13.73969   -7.73205  -12.49848
       H    -9.45935  -12.28450  -13.64180
       O    -8.83911  -11.99149  -14.35067
      H1    -7.95813  -12.18046  -13.93270
       H   -12.98319  -12.48701   -9.61278
       O   -13.34912  -13.30627  -10.04363
      H1   -12.74517  -14.00872   -9.83444
       H   -10.25897  -10.82690  -18.39035
       O   -10.93468  -10.35806  -18.96670
      H1   -11.80776  -10.47427  -18.53334
       H   -10.88391  -18.15908   -8.88952
       O   -10.27582  -17.60510   -9.44762
      H1   -10.60601  -16.72619   -9.20766
       H    -6.64207  -17.97386  -15.23142
       O    -5.67830  -17.92969  -15.08358
      H1    -5.24967  -18.62757  -15.64663
       H    -9.20520  -12.61170  -17.53590
       O    -8.61379  -11.81758  -17.65284
      H1    -8.08143  -12.05699  -18.36633
       H   -13.07228  -17.81756  -18.11525
       O   -12.89217  -17.75777  -17.15606
      H1   -12.91975  -18.68748  -16.89651
       H   -14.10310  -16.69654  -13.74994
       O   -13.41035  -17.40440  -13.70930
      H1   -13.16390  -17.38197  -12.75526
       H    -9.02583  -17.14739  -16.58053
       O    -8.48662  -16.96770  -15.84651
      H1    -8.25674  -16.02086  -15.90304
       H    -9.33938   -8.34268  -14.01136
       O    -8.69153   -8.88810  -13.57810
      H1    -8.86342   -9.78351  -13.71225
       H   -16.09369  -13.24722  -13.13439
       O   -16.18745  -12.93938  -12.18595
      H1   -15.36712  -12.40161  -12.04857
       H    -5.48518  -17.22667   -8.88263
       O    -6.24596  -16.74888   -9.25271
      H1    -6.01475  -15.82273   -9.26374
       H   -16.45278  -13.16534  -15.57871
       O   -15.72954  -13.45795  -15.05159
      H1   -15.25890  -14.07955  -15.63258
       H   -15.67039  -11.53981  -14.47393
       O   -15.96925  -10.63255  -14.33117
      H1   -16.20652  -10.70467  -13.40143
       H   -10.55008  -10.97040  -12.35346
       O   -11.37447  -10.76479  -12.83259
      H1   -11.56794   -9.89222  -12.53153
       H   -17.93961  -15.90526  -11.48549
       O   -18.88046  -16.08621  -11.28792
      H1   -19.01702  -16.81699  -11.88763
       H   -12.85467  -10.17777   -8.56812
       O   -12.71109  -10.66322   -9.38385
      H1   -11.86582  -10.09700   -9.57512
       H   -13.10270  -11.48904  -12.12736
       O   -14.00704  -11.21352  -11.93100
      H1   -13.93079  -10.95974  -11.01453
       H    -7.89222  -13.81075  -14.94178
       O    -8.03232  -14.24369  -15.81014
      H1    -8.05880  -13.44123  -16.31806
       H    -8.89930  -10.97409   -7.82447
       O    -8.73003  -11.08278   -8.75034
      H1    -7.77748  -10.99924   -8.79939
       H    -8.41317  -12.85358   -8.00313
       O    -8.56044  -13.80214   -8.10605
      H1    -8.25613  -14.03687   -7.23003
       H   -12.23805  -13.80841  -17.80184
       O   -13.10663  -14.10889  -18.19635
      H1   -13.52279  -13.39873  -18.65536
       H    -6.19126  -12.42581  -11.24905
       O    -5.75174  -12.27162  -10.40864
      H1    -4.93578  -11.74492  -10.71763
       H   -15.61890  -16.77540  -17.45348
       O   -15.75612  -17.68108  -17.16990
      H1   -14.83152  -17.94924  -17.38634
       H   -18.41866  -13.24674   -8.57610
       O   -17.99891  -12.99846   -9.41020
      H1   -17.13806  -12.73136   -9.06534
       H   -11.92236  -11.37149  -14.79613
       O   -11.66028  -11.12871  -15.70468
      H1   -10.67200  -11.16221  -15.66269
       H    -6.30670  -16.50010  -11.80111
       O    -6.12501  -16.25106  -12.71071
      H1    -5.95070  -17.04307  -13.18522
       H    -8.95265  -15.65176  -11.41472
       O    -9.10411  -14.81813  -10.99190
      H1    -8.76508  -14.94838  -10.08618
       H   -12.80884  -14.40209  -11.88893
       O   -11.92537  -14.80325  -12.03488
      H1   -12.06485  -15.57742  -11.51960
       H    -8.66703  -17.79530   -8.42926
       O    -8.16726  -18.38324   -7.83479
      H1    -7.25376  -18.00826   -7.89050
       H   -16.70309  -18.45789  -15.65074
       O   -17.37029  -18.30816  -14.96842
      H1   -17.47031  -19.28437  -14.74731
       H   -16.43315  -16.92324  -14.07419
       O   -15.98216  -16.10615  -13.75142
      H1   -16.22127  -15.47767  -14.34959
       H    -5.13883  -14.97713  -15.80231
       O    -4.59961  -15.62133  -16.35512
      H1    -4.74833  -16.39845  -15.76052
       H    -6.74445  -14.85001  -18.89809
       O    -7.48489  -14.26215  -19.13256
      H1    -6.95402  -13.80525  -19.86141
       H    -9.91560   -8.85085  -10.43424
       O   -10.44756   -8.93960   -9.56782
      H1    -9.95096   -9.61734   -9.08653
       H   -13.40822   -9.75842  -17.05354
       O   -13.37968  -10.08152  -17.96088
      H1   -13.82602  -10.91944  -17.95210
       H   -16.59698  -19.21014  -12.22396
       O   -16.46711  -19.06235  -11.27852
      H1   -17.37480  -18.64163  -11.07620
       H    -9.48611  -12.93532  -11.19848
       O    -9.41056  -11.98252  -11.37432
      H1    -8.96409  -11.71189  -10.56204
       H   -16.43719  -10.53286  -11.26606
       O   -17.09416   -9.99722  -11.70520
      H1   -17.87942  -10.46194  -11.89137
       H   -16.27354   -9.66080  -15.61790
       O   -16.72769   -9.09070  -16.26444
      H1   -16.42456   -8.19572  -15.98555
       H   -16.27828  -14.27877  -11.22392
       O   -16.39749  -15.13559  -10.72077
      H1   -16.88139  -14.74374   -9.95967
       H   -13.08773  -17.54481  -10.81545
       O   -12.26478  -17.81244  -11.26818
      H1   -11.64617  -17.85174  -10.52159
       H   -11.09790  -12.73159  -16.40375
       O   -10.70438  -13.33393  -17.05908
      H1   -10.56335  -14.14530  -16.59550
       H    -8.98706  -17.81372  -12.11389
       O    -8.41954  -18.19246  -11.41564
      H1    -8.90962  -17.91368  -10.60604
       H   -15.28341  -11.71714  -19.58536
       O   -15.33643  -12.39674  -18.90462
      H1   -16.06555  -12.08751  -18.41216
       H    -6.68219  -16.95598  -18.68427
       O    -5.86534  -16.32381  -18.77818
      H1    -5.55814  -16.15336  -17.86388
       H   -15.07040  -17.79971  -10.80140
       O   -14.56809  -17.06097  -10.40071
      H1   -15.16604  -16.32470  -10.65477
       H    -9.10867  -16.94354  -19.03414
       O    -8.39016  -17.67715  -19.09391
      H1    -8.99704  -18.39973  -19.26631
       H   -16.28017  -14.81477  -17.91264
       O   -15.56318  -14.95990  -17.24825
      H1   -14.79079  -14.63326  -17.73579
       H   -15.31620  -16.73763   -8.81691
       O   -15.79510  -16.34450   -8.08435
      H1   -16.71976  -16.48994   -8.26954
       H   -11.57877  -14.83051   -7.63946
       O   -11.37389  -14.99212   -8.60256
      H1   -10.47022  -14.61117   -8.68531
       H    -9.44758  -17.42489  -14.21229
       O   -10.06626  -17.49066  -13.54643
      H1   -10.67980  -16.82164  -13.84708
       H   -18.59053  -11.95773  -15.91837
       O   -18.00202  -12.61645  -16.31206
      H1   -18.48792  -13.36337  -16.02365
       H   -12.24246   -9.22805  -15.37816
       O   -12.32759   -8.37392  -15.87528
      H1   -11.57207   -8.39948  -16.52442

