180
frame 11 | Written by MDAnalysis XYZWriter (release 2.4.3)
       H   -17.68495  -13.39645   -9.89478
       O   -17.13428  -14.07455  -10.35466
      H1   -16.46311  -14.43229   -9.79417
       H   -12.07731  -12.91444  -17.82420
       O   -12.33900  -12.85732  -16.90951
      H1   -11.96593  -11.98402  -16.71384
       H    -8.59519  -12.01001  -10.56473
       O    -8.44383  -11.47007  -11.32329
      H1    -7.51055  -11.18381  -11.15857
       H   -17.32438   -8.01214  -14.60537
       O   -17.80699   -7.23608  -14.82740
      H1   -17.71926   -6.65857  -14.06632
       H   -10.83307  -10.07514  -12.46013
       O   -11.45177  -10.27282  -13.14297
      H1   -10.99770  -10.29210  -14.02498
       H   -16.40506   -4.14235  -12.62166
       O   -15.61462   -4.59118  -13.01034
      H1   -15.49102   -5.39796  -12.44597
       H   -12.99135   -6.09873  -10.85701
       O   -12.17521   -5.90609  -10.29025
      H1   -12.03026   -4.97496  -10.37601
       H   -10.77974  -13.95889  -11.04743
       O   -10.72548  -14.48117  -10.23781
      H1   -10.55673  -15.41078  -10.54571
       H   -14.49069   -9.40176  -13.85878
       O   -13.73542   -8.78994  -13.75821
      H1   -13.05935   -9.34653  -13.34127
       H   -11.68150   -9.18264   -6.32607
       O   -12.33334   -9.12341   -5.57656
      H1   -12.74454   -8.20556   -5.62879
       H   -15.69551   -4.02756   -8.39247
       O   -15.42861   -4.72931   -9.02145
      H1   -14.78771   -4.31199   -9.59308
       H    -9.26447  -13.72667   -9.44286
       O    -8.72802  -13.08443   -9.01476
      H1    -9.18488  -12.84615   -8.18651
       H   -13.04992  -15.35445  -14.60287
       O   -12.10252  -15.11525  -14.80108
      H1   -12.03305  -14.56095  -15.56020
       H   -17.84088  -16.13043   -7.12362
       O   -16.94507  -15.86474   -6.98223
      H1   -16.55143  -16.62759   -6.54246
       H   -17.82562  -14.12017  -15.45095
       O   -17.01253  -14.69613  -15.50934
      H1   -16.91734  -15.08796  -14.62627
       H   -15.00628   -9.66269  -17.29186
       O   -15.70798  -10.34703  -17.18969
      H1   -15.25727  -11.07945  -16.73414
       H   -18.63637   -6.61096  -16.45098
       O   -19.41347   -6.42751  -17.06295
      H1   -20.01373   -7.16169  -16.90991
       H   -18.07004   -4.80186  -10.92255
       O   -18.05996   -4.35397  -10.08021
      H1   -17.33604   -4.55658   -9.47004
       H   -10.02070  -11.43202  -15.97323
       O   -10.72011  -10.72744  -15.96074
      H1   -10.29394  -10.00948  -16.42872
       H   -18.36385  -11.83765  -17.99972
       O   -18.14450  -10.97155  -18.43561
      H1   -17.31798  -10.78955  -18.03636
       H   -14.99446  -12.94648  -12.76292
       O   -15.53079  -12.39551  -13.26409
      H1   -15.14211  -12.42386  -14.17036
       H   -15.49077  -13.42012  -16.17859
       O   -14.92615  -12.67098  -16.02279
      H1   -14.09315  -12.90413  -16.41872
       H   -13.74752   -7.79218   -8.32819
       O   -14.62455   -7.43246   -7.99495
      H1   -14.79151   -6.48544   -8.31660
       H   -10.54994   -6.56589  -16.88534
       O   -10.97350   -7.27430  -16.33290
      H1   -11.87295   -7.12645  -16.40400
       H   -13.71648   -6.97277   -6.59149
       O   -13.03724   -6.65896   -5.93202
      H1   -13.57140   -6.07601   -5.33990
       H    -9.96663   -6.03415  -12.53943
       O    -9.74725   -6.23059  -11.61314
      H1   -10.68439   -6.12613  -11.26781
       H   -12.32627   -9.19930  -19.46219
       O   -12.30820   -9.59548  -18.58207
      H1   -11.63899  -10.28842  -18.66384
       H   -15.04161  -11.09018  -10.64120
       O   -15.80066  -10.65937  -11.12727
      H1   -15.68399  -11.04632  -11.99751
       H    -9.36746  -10.03830  -11.29358
       O    -9.79868   -9.22071  -11.04358
      H1    -9.34527   -8.43950  -11.44441
       H   -11.65451   -6.22679   -7.09090
       O   -11.04888   -5.77582   -7.65688
      H1   -11.43529   -5.88467   -8.52749
       H   -18.98402   -7.24533  -11.64004
       O   -18.65679   -6.44392  -12.06907
      H1   -19.29518   -6.14726  -12.75478
       H   -10.16386  -11.48103   -6.99498
       O    -9.66916  -12.27673   -6.78117
      H1   -10.39141  -12.98147   -6.86793
       H   -15.20662  -13.74602  -18.92196
       O   -15.82353  -14.44688  -19.18129
      H1   -16.67053  -14.20563  -18.72269
       H   -10.78851   -9.04041   -8.09664
       O   -10.23874   -9.46560   -7.45435
      H1    -9.35129   -9.48374   -7.75149
       H   -15.12934  -18.56183  -10.52211
       O   -16.07354  -18.71201  -10.29163
      H1   -16.57083  -18.32640  -11.04353
       H   -17.53151   -8.24792   -8.27999
       O   -18.05821   -8.00900   -7.52157
      H1   -17.52347   -7.37376   -7.05283
       H   -15.14927   -5.42232  -16.75574
       O   -15.41197   -6.26233  -17.14450
      H1   -15.02092   -6.92130  -16.57724
       H   -17.25903  -16.53116  -16.32025
       O   -17.08137  -17.43731  -16.57892
      H1   -16.15138  -17.55156  -16.32767
       H   -18.00571  -11.84488   -8.31924
       O   -18.71628  -12.24766   -8.74089
      H1   -19.21824  -12.57648   -7.96036
       H   -10.95163  -12.21246  -12.75663
       O   -10.66461  -13.14488  -12.69313
      H1   -10.82373  -13.52022  -13.58079
       H   -10.95657   -5.97697  -14.67317
       O   -10.46136   -5.32310  -14.17719
      H1    -9.69697   -5.19043  -14.72185
       H   -16.86994   -4.41948  -16.67062
       O   -16.56328   -3.80842  -15.91848
      H1   -16.52769   -4.37117  -15.14436
       H   -18.25015  -17.73936  -11.91199
       O   -17.52840  -17.24089  -12.28701
      H1   -17.81030  -16.32991  -12.20047
       H   -15.61567   -8.02643   -9.29484
       O   -16.25437   -7.98155   -9.99449
      H1   -16.11321   -8.82033  -10.52696
       H   -16.52762  -14.00775   -6.57712
       O   -16.15247  -13.22832   -6.20468
      H1   -16.88421  -12.57625   -6.16049
       H   -18.54318  -13.15015  -13.30072
       O   -18.35352  -12.18534  -13.45126
      H1   -17.39383  -12.26772  -13.40822
       H   -12.68744  -17.93868  -11.09230
       O   -13.64371  -17.75580  -11.33495
      H1   -13.66398  -17.13364  -12.10424
       H   -19.38292  -15.22549  -12.24343
       O   -18.56534  -14.67839  -12.41356
      H1   -18.15578  -14.47536  -11.55652
       H   -11.56431  -14.37414   -8.44355
       O   -11.55504  -14.42812   -7.47159
      H1   -11.09919  -15.30813   -7.19799
       H   -17.12753  -10.21658  -14.15003
       O   -16.53427   -9.56903  -14.53533
      H1   -16.30635   -9.97348  -15.40375
       H   -17.46496   -9.74081   -7.06140
       O   -17.04915  -10.60152   -6.86887
      H1   -16.09376  -10.43793   -6.86310
       H   -11.18701  -16.57465  -14.20647
       O   -10.89906  -17.41425  -13.80351
      H1   -10.01253  -17.48645  -14.12759
       H   -12.00622   -7.90746   -9.36901
       O   -12.51046   -8.64377   -8.93309
      H1   -12.46881   -9.37758   -9.54709
       H   -13.25036  -12.36858   -9.88532
       O   -13.47511  -11.40271   -9.78868
      H1   -13.64143  -11.34136   -8.83363
       H   -14.52378  -17.15333  -14.33588
       O   -14.71239  -16.48410  -13.59248
      H1   -15.57063  -16.71943  -13.23184
       H   -15.56398  -15.76469   -8.20351
       O   -15.17417  -15.70211   -9.07628
      H1   -15.33544  -16.54478   -9.50603
       H   -12.85793  -14.53086  -11.09512
       O   -13.72589  -14.02817  -11.03671
      H1   -14.22156  -14.58586  -10.44589
       H   -14.29828  -12.37516   -7.18158
       O   -13.70282  -11.59031   -7.09939
      H1   -13.03630  -11.86454   -6.42060
       H   -12.93824   -8.97463  -17.02976
       O   -13.53739   -8.37275  -16.49751
      H1   -13.57758   -8.73431  -15.56287
       H   -14.85854   -7.43600  -10.86732
       O   -14.34788   -6.88248  -11.46994
      H1   -14.19300   -7.44646  -12.24303

