180
frame 2 | Written by MDAnalysis XYZWriter (release 2.4.3)
       H    -2.42688  -10.54612  -13.95387
       O    -2.18686   -9.69827  -13.48548
      H1    -2.39138   -9.98226  -12.54966
       H    -5.72743   -8.33685  -10.59257
       O    -5.97165   -8.55445   -9.69815
      H1    -5.43140   -7.89026   -9.15990
       H    -2.26704    0.51637  -13.50952
       O    -1.62799   -0.03693  -13.03136
      H1    -2.22298   -0.38623  -12.33384
       H    -2.02351   -3.04744  -13.39237
       O    -2.16923   -2.53032  -14.19357
      H1    -1.88408   -1.65813  -13.98435
       H    -3.50420   -8.01074   -3.76557
       O    -3.01866   -7.16548   -4.02790
      H1    -3.68651   -6.43253   -3.92760
       H    -0.33178   -2.37515   -7.15524
       O     0.48579   -2.79905   -6.77200
      H1     0.37723   -3.78708   -6.93738
       H    -0.89217  -11.05916   -8.33866
       O    -1.57491  -11.19536   -9.02048
      H1    -2.05818  -11.97060   -8.67244
       H     4.62192   -2.70965   -9.25901
       O     3.86874   -3.12418   -8.80011
      H1     3.98605   -2.82519   -7.89953
       H     1.81648   -4.61991   -3.70629
       O     2.74148   -4.24171   -3.69067
      H1     2.78138   -3.76430   -2.81340
       H     0.83393   -2.64048  -12.82215
       O     0.58156   -2.64691  -11.88710
      H1     1.17305   -3.35138  -11.58222
       H    -6.06352   -5.11105  -13.78605
       O    -5.94806   -4.91002  -12.88190
      H1    -6.87491   -4.55165  -12.75923
       H     3.08590   -7.80672   -7.19194
       O     2.65684   -8.15766   -7.95890
      H1     3.25677   -8.81502   -8.37873
       H     3.93274   -4.83268   -4.83024
       O     4.61016   -4.64178   -5.47347
      H1     4.58744   -5.39202   -6.03565
       H    -2.86894   -5.43086  -10.83814
       O    -2.97138   -6.37707  -10.49877
      H1    -3.85755   -6.29813  -10.06978
       H     5.74948   -7.67869   -6.09946
       O     4.82391   -7.68382   -6.07010
      H1     4.49843   -8.03216   -5.24427
       H     1.99911   -0.70118   -9.88178
       O     1.12027   -0.56422  -10.17745
      H1     0.82190   -1.38057  -10.56793
       H     2.45394   -2.81378   -6.52831
       O     3.25006   -2.37388   -6.17107
      H1     3.71125   -3.16756   -5.77663
       H     2.73418   -4.22555  -10.00966
       O     1.86341   -4.58750  -10.39351
      H1     1.29600   -4.61963   -9.62956
       H    -1.35248   -7.05348  -13.49572
       O    -0.81846   -6.29399  -13.31404
      H1    -0.06627   -6.63581  -12.73537
       H     2.17299  -10.50032  -10.50084
       O     1.50880   -9.80754  -10.62329
      H1     2.02971   -9.00000  -10.66522
       H     1.85735   -6.04817  -11.20647
       O     1.89764   -6.99501  -11.60605
      H1     2.54488   -6.91183  -12.31010
       H    -1.23234  -12.50397   -5.64806
       O    -0.39254  -12.32410   -5.16760
      H1    -0.35836  -11.37363   -5.04535
       H    -2.34990   -7.09092   -2.33105
       O    -1.77983   -7.14353   -1.48743
      H1    -2.14564   -6.49755   -0.81096
       H    -2.34705   -9.73292   -9.96661
       O    -2.80246   -9.23628  -10.73034
      H1    -2.97832   -8.37814  -10.29526
       H     2.45747   -1.47850  -12.10183
       O     3.38325   -1.43542  -11.88926
      H1     3.71538   -0.63335  -12.33427
       H    -3.25126   -8.32851  -14.47571
       O    -4.12583   -8.05729  -14.73667
      H1    -4.10923   -8.34591  -15.67118
       H     1.38817   -7.70280   -2.97975
       O     1.88065   -7.61787   -3.75945
      H1     2.61039   -8.16489   -3.48074
       H     0.05691   -6.97230   -5.02695
       O    -0.59808   -6.27358   -5.18611
      H1    -1.25874   -6.57811   -4.58587
       H    -3.54455   -2.31271   -4.99180
       O    -3.74930   -3.26162   -5.12317
      H1    -4.53554   -3.16279   -5.68755
       H    -4.88273  -11.94608  -10.07034
       O    -5.19220  -11.23861   -9.39730
      H1    -5.28825  -10.47684   -9.91714
       H    -1.33603   -3.38079  -11.76888
       O    -2.10175   -3.96417  -11.86143
      H1    -1.72492   -4.78651  -12.28910
       H     0.75415   -6.10826  -15.86866
       O     0.42594   -6.96987  -15.69698
      H1     0.14946   -6.87405  -14.77548
       H    -0.59576   -9.59760   -6.79488
       O    -1.07604   -9.86775   -6.00110
      H1    -1.68518   -9.15211   -5.82518
       H    -2.19021   -0.89642   -6.84986
       O    -1.87909   -1.29765   -7.63477
      H1    -1.10646   -0.72336   -7.77715
       H    -4.84618   -8.71049   -6.95710
       O    -5.20446   -9.59324   -6.88376
      H1    -5.20029   -9.93276   -7.79663
       H    -7.55769   -5.18920   -8.97550
       O    -7.31697   -5.17154   -8.06206
      H1    -8.16346   -5.23986   -7.60408
       H     1.07129   -8.67601   -7.88671
       O     0.23271   -9.20962   -8.15915
      H1     0.49416   -9.30656   -9.08803
       H    -2.97019  -12.61085   -6.75279
       O    -2.43461  -13.15189   -7.34127
      H1    -3.13359  -13.71081   -7.64151
       H    -3.95091   -1.61491  -11.68409
       O    -3.64861   -0.80930  -11.19931
      H1    -4.21407   -0.05152  -11.35371
       H    -5.59572   -5.98791   -8.01767
       O    -4.82261   -6.33269   -8.44159
      H1    -4.13747   -6.55975   -7.73937
       H    -2.90438   -3.98383   -6.63568
       O    -2.44507   -4.59507   -7.19501
      H1    -1.68484   -4.06948   -7.50137
       H    -2.42072   -6.53112   -6.58555
       O    -3.05263   -7.31063   -6.60069
      H1    -3.13805   -7.26923   -5.62728
       H     3.67340   -3.04819  -13.33217
       O     3.93060   -3.82792  -13.88377
      H1     4.35672   -3.25462  -14.62157
       H    -3.67641   -3.91274   -2.48412
       O    -4.22919   -4.57230   -2.94752
      H1    -4.16028   -4.22307   -3.88524
       H     0.55054   -5.95332   -7.54661
       O     1.21962   -5.36018   -7.14087
      H1     1.02311   -5.49388   -6.21273
       H    -4.69419  -12.24292   -5.41207
       O    -3.94114  -11.66865   -5.66975
      H1    -4.30213  -10.89819   -6.16702
       H    -1.44165   -6.27517   -9.48890
       O    -0.54398   -6.42848   -9.06522
      H1    -0.65267   -7.27769   -8.65998
       H    -0.12187   -3.60987   -3.49692
       O    -0.42008   -2.85455   -3.98782
      H1    -0.05670   -2.95450   -4.87742
       H     3.59621   -6.26286   -8.21346
       O     4.35989   -5.74011   -8.47641
      H1     4.02942   -4.82842   -8.57051
       H    -4.30338  -10.05600   -3.02320
       O    -4.27116   -9.67528   -3.90967
      H1    -3.69502  -10.24762   -4.45043
       H    -4.97660   -7.83997  -13.17519
       O    -5.67532   -7.67946  -12.50722
      H1    -5.72535   -6.70910  -12.45726
       H     0.44297  -12.36379  -12.26461
       O     0.33533  -13.33495  -12.15007
      H1     0.09380  -13.36977  -11.20546
       H     5.21448   -7.09247   -9.80805
       O     5.46234   -7.67921  -10.46133
      H1     4.68651   -7.88115  -11.00125
       H     4.72663  -10.24834  -10.03160
       O     4.41145  -10.17327   -9.06804
      H1     3.97277  -11.02898   -9.02608
       H    -3.90146   -2.69477  -13.38703
       O    -4.79080   -2.50715  -12.97570
      H1    -5.13994   -3.40193  -12.71270
       H    -0.32818  -10.36589  -12.97886
       O     0.56031  -10.76051  -12.89020
      H1     0.82089  -10.36957  -12.05449
       H    -4.19961   -1.80357  -10.00136
       O    -4.25918   -2.41646   -9.22640
      H1    -3.38049   -2.27228   -8.82557
       H     4.09879   -7.33019  -14.41813
       O     4.01978   -7.90229  -13.59250
      H1     3.36538   -8.49419  -13.97397
       H    -5.07313   -2.48766   -7.66373
       O    -5.60156   -2.30624   -6.85122
      H1    -6.28785   -2.96241   -6.88140
       H     3.93803  -11.68290  -12.05259
       O     4.32881  -10.81176  -11.80873
      H1     5.09208  -10.68875  -12.32051

