180
frame 9 | Written by MDAnalysis XYZWriter (release 2.4.3)
       H    -2.11931   10.33005   -2.48438
       O    -2.22506    9.72907   -3.20529
      H1    -2.11755   10.30518   -4.00028
       H    -6.33377    3.14115   -5.39240
       O    -6.78897    3.92286   -4.98945
      H1    -6.13099    4.58325   -5.25906
       H    -9.19791    6.19297  -10.86950
       O   -10.08236    6.47548  -10.63094
      H1   -10.51594    6.71849  -11.43263
       H    -7.26386    1.18850   -8.35785
       O    -7.34446    0.27475   -8.04596
      H1    -8.26371    0.32569   -7.68959
       H    -3.97786    8.66461    1.18483
       O    -3.65495    8.08658    0.39968
      H1    -3.28156    7.33159    0.93961
       H   -10.93170    8.63695   -2.34455
       O   -11.68852    8.02651   -2.38415
      H1   -12.15943    8.37019   -3.16742
       H    -6.36202   -1.36269   -9.92768
       O    -7.33361   -1.31271  -10.00947
      H1    -7.35068   -0.64693   -9.28271
       H    -1.11779    3.67071   -3.64402
       O    -0.20197    3.45292   -3.44703
      H1     0.23255    4.28941   -3.14473
       H    -9.86122    2.51393   -1.83309
       O   -10.40746    1.82560   -1.45344
      H1    -9.97629    1.00603   -1.71032
       H    -3.42943    4.23126   -3.52862
       O    -2.62612    4.60192   -3.92109
      H1    -3.01332    4.92204   -4.75641
       H    -2.69110   -0.88997   -4.39968
       O    -2.44892   -0.97993   -3.46419
      H1    -1.64031   -0.41000   -3.41213
       H    -1.11417    4.32092  -10.42041
       O    -0.14762    4.16664  -10.37400
      H1     0.16435    4.52015  -11.28339
       H    -5.17065    4.50395   -2.12650
       O    -5.05628    3.89676   -2.89341
      H1    -5.63423    4.18831   -3.59367
       H     0.16481    5.81999   -1.91582
       O     0.92914    5.99886   -2.46649
      H1     1.53593    5.28702   -2.27833
       H   -12.25313    7.50816   -5.68494
       O   -11.56348    7.08470   -6.25713
      H1   -12.25917    6.83022   -6.95647
       H    -1.90695    2.14040   -7.70590
       O    -2.58591    2.62819   -8.21679
      H1    -2.54389    2.20768   -9.11361
       H    -7.43094    8.76697  -11.39456
       O    -7.57877    9.23598  -10.54762
      H1    -7.58684    8.44211   -9.89975
       H    -9.66319   10.01857   -7.41594
       O    -9.43249    9.97677   -6.48200
      H1    -9.37491    9.03085   -6.37191
       H    -7.98631    7.44394   -7.52847
       O    -7.54143    7.58248   -8.41474
      H1    -7.17421    6.69934   -8.49079
       H    -5.95862    5.83903   -0.12013
       O    -5.09183    5.72551   -0.54236
      H1    -4.54387    6.59825   -0.53507
       H    -6.24636    9.19938   -0.10315
       O    -7.13100    9.18728   -0.39882
      H1    -7.57008    9.76479    0.21524
       H    -9.85153   -0.70898   -3.49786
       O    -9.24253   -0.58053   -4.25777
      H1    -8.41019   -0.47723   -3.73577
       H    -7.38633   12.21544   -3.98513
       O    -6.47731   12.42759   -3.83580
      H1    -6.07661   11.52503   -3.92631
       H    -6.64354    0.02304   -2.27137
       O    -6.83097   -0.77185   -2.83981
      H1    -6.17710   -1.40688   -2.58088
       H   -11.64452    5.58134   -5.10753
       O   -11.68168    5.12667   -4.27415
      H1   -11.19525    4.37920   -4.58803
       H    -9.63914   -0.27454   -5.90233
       O    -9.75919   -0.11029   -6.85302
      H1   -10.37249    0.60692   -6.95476
       H    -2.07287    7.73332   -2.78088
       O    -1.90598    6.91386   -2.29179
      H1    -2.65926    6.33875   -2.48217
       H    -5.95839    2.48612   -2.29766
       O    -6.65353    1.81818   -2.03940
      H1    -6.74606    2.02453   -1.09886
       H    -3.47068   -0.95846   -6.73771
       O    -3.64489   -1.12689   -5.81199
      H1    -4.32919   -0.52833   -5.56900
       H     0.14669    1.84778   -7.06722
       O    -0.34973    1.02165   -7.10733
      H1    -0.04495    0.68476   -7.95588
       H    -5.38332    5.00742   -7.78599
       O    -6.13453    5.04497   -8.44940
      H1    -5.69037    5.16138   -9.28079
       H    -9.86710    7.06762   -6.08218
       O    -8.90496    7.19623   -6.05635
      H1    -8.84699    6.82115   -5.12093
       H    -9.22049    3.91505    0.37679
       O    -9.86434    3.69658    1.01191
      H1   -10.62625    3.47607    0.51350
       H    -3.06339    3.63911    0.14470
       O    -2.73286    3.19651    0.95616
      H1    -2.56064    3.95482    1.54455
       H   -11.03215    1.65548   -9.04959
       O   -10.54676    2.18681   -9.70833
      H1   -10.38258    1.53448  -10.39953
       H    -4.65890    9.28305   -8.91972
       O    -4.93760    8.38430   -9.03816
      H1    -5.87564    8.45097   -8.72084
       H    -5.10403   10.37955   -2.62922
       O    -5.26886    9.97613   -3.47571
      H1    -4.36388    9.79078   -3.62194
       H    -7.92812    3.43687   -2.74290
       O    -8.77674    3.75152   -2.38443
      H1    -8.89453    4.55679   -2.86926
       H    -7.26349    5.54263  -11.29300
       O    -6.48076    6.05616  -11.19280
      H1    -6.50215    6.74150  -11.88883
       H    -9.08875   11.17701   -5.21961
       O    -9.07568   11.76239   -4.41144
      H1    -9.22045   11.04572   -3.77187
       H   -11.65805    3.60731   -9.89090
       O   -12.08520    4.49101  -10.05694
      H1   -11.26450    5.00025  -10.30428
       H     1.09170    4.07253   -6.53121
       O     0.76549    3.22650   -6.20163
      H1     0.63550    3.43984   -5.26941
       H   -11.04932    3.04520   -6.79200
       O   -11.41685    2.21690   -7.06701
      H1   -12.34145    2.47562   -6.93990
       H     0.63634    6.32071   -4.91695
       O     1.42179    6.40668   -5.51682
      H1     1.12498    6.74326   -6.37293
       H    -7.50730    6.13971    1.28533
       O    -7.61613    6.25857    0.32172
      H1    -7.70004    7.19871    0.26181
       H    -7.35671    3.57215   -8.78274
       O    -7.67302    2.76622   -9.19937
      H1    -8.61075    2.92027   -9.48502
       H    -2.42767    6.81286   -8.05705
       O    -2.91379    7.30424   -7.39478
      H1    -3.53715    7.84389   -7.89621
       H    -2.32651    6.08216  -11.43529
       O    -2.81562    5.31390  -11.11807
      H1    -3.49117    5.83339  -10.73832
       H    -3.43319    4.22944   -7.07672
       O    -4.04818    4.88999   -6.61165
      H1    -3.72672    5.82046   -6.80423
       H     0.45628    0.32525   -4.10055
       O    -0.22011    0.71413   -3.42308
      H1    -0.16456    1.69672   -3.44588
       H    -8.27869   -1.94809   -4.84091
       O    -7.82884   -2.64481   -5.27418
      H1    -8.20747   -2.52054   -6.13698
       H    -5.58681    1.77291    0.75578
       O    -6.40800    2.28071    0.64663
      H1    -7.06617    1.71819    1.11140
       H    -2.98296    0.89573   -8.22055
       O    -3.20208   -0.03403   -8.14899
      H1    -3.78829   -0.15631   -8.90967
       H   -12.80190    5.31786   -2.90521
       O   -13.45908    5.22367   -2.17081
      H1   -14.35810    4.92988   -2.57228
       H    -9.92250    6.31808   -2.93363
       O    -9.03812    6.43939   -3.33328
      H1    -8.58856    6.77923   -2.56442
       H    -4.60007    2.38013  -11.19615
       O    -4.83690    2.61505  -10.30265
      H1    -5.81500    2.78757  -10.35456
       H    -6.30461    0.74668   -6.47727
       O    -5.88815    0.93698   -5.64524
      H1    -6.27372    0.21751   -5.10584
       H    -7.61552   10.18310   -7.72391
       O    -6.82191   10.75236   -7.75268
      H1    -7.20487   11.52366   -8.07074
       H    -9.99007   10.54962   -1.61076
       O    -9.44014    9.90890   -2.16401
      H1    -8.65675    9.69267   -1.60591
       H    -8.58877    4.00835   -5.90930
       O    -9.34992    4.46832   -6.27743
      H1    -9.15838    5.36936   -5.96079

