180
frame 7 | Written by MDAnalysis XYZWriter (release 2.4.3)
       H   -14.42076  -18.32991   -5.47608
       O   -13.52517  -18.03922   -5.81686
      H1   -13.37158  -17.06409   -5.65597
       H   -16.29617   -7.05323   -2.32911
       O   -15.94118   -6.84402   -3.20241
      H1   -16.70195   -7.14140   -3.74616
       H   -19.43119  -10.56333  -13.85621
       O   -19.06625   -9.79537  -14.40220
      H1   -18.47894   -9.42433  -13.71795
       H   -14.15612  -14.42938   -8.34222
       O   -14.98463  -14.41001   -7.83946
      H1   -15.20348  -15.35132   -7.75244
       H   -12.05108   -9.83835  -10.24409
       O   -12.43882   -9.37999  -11.00762
      H1   -12.81825  -10.09111  -11.51896
       H   -12.60880  -12.84529   -8.93385
       O   -12.70079  -13.80293   -9.20314
      H1   -11.90215  -14.21309   -8.85657
       H   -15.67176   -3.89909   -8.31207
       O   -16.62851   -3.79953   -8.14994
      H1   -16.66899   -2.93579   -7.66720
       H   -11.86554  -11.95652   -2.78908
       O   -11.84114  -12.69185   -3.43904
      H1   -12.53011  -13.27308   -3.17372
       H   -19.94243  -14.00978  -10.49905
       O   -19.89424  -13.40609   -9.77028
      H1   -18.94270  -13.27586   -9.56018
       H   -17.94336   -7.30327   -8.62560
       O   -18.03520   -7.81239   -9.44170
      H1   -17.22780   -8.31215   -9.40758
       H   -17.86064  -13.05124   -3.84465
       O   -17.73636  -13.05397   -2.89896
      H1   -18.57241  -12.73962   -2.51353
       H   -13.88585   -8.36775   -1.75327
       O   -14.13016   -9.27721   -1.56123
      H1   -13.33808   -9.78146   -1.30143
       H   -17.39899   -5.61306   -7.42235
       O   -17.95459   -6.28507   -7.05746
      H1   -18.82627   -5.92568   -7.27964
       H   -17.54159   -3.24804   -5.28702
       O   -18.29297   -3.28801   -4.70497
      H1   -17.94643   -3.28585   -3.80287
       H   -12.63512   -7.83792   -3.96128
       O   -12.95627   -8.38317   -4.72526
      H1   -13.85673   -8.06972   -4.89068
       H   -16.76568  -13.00170  -13.40748
       O   -16.56005  -13.22140  -12.45639
      H1   -15.60119  -13.39032  -12.50238
       H   -15.91678   -9.70070    1.42272
       O   -15.09851   -9.18772    1.33255
      H1   -15.21378   -9.08549    0.37459
       H   -19.28631   -3.61002  -12.48026
       O   -19.23191   -4.25793  -11.71286
      H1   -18.39006   -4.69323  -11.92301
       H   -16.98050  -12.65847  -15.55556
       O   -16.25213  -13.16939  -15.18609
      H1   -15.93555  -13.52361  -15.99841
       H   -18.05290  -11.66402   -5.45536
       O   -17.23862  -11.49736   -5.03475
      H1   -17.54368  -11.10738   -4.17208
       H   -16.34455   -8.54243  -11.86524
       O   -16.58153   -7.60839  -12.13132
      H1   -17.06245   -7.34429  -11.33723
       H   -14.98241   -9.40411   -9.54646
       O   -15.63758   -9.08148   -8.94687
      H1   -15.08732   -8.75072   -8.23534
       H   -12.49348  -10.80004   -8.16247
       O   -12.13037  -11.26112   -8.93908
      H1   -11.23448  -10.98524   -9.00471
       H   -13.96091  -12.20964  -11.50009
       O   -13.83795  -11.56470  -12.29310
      H1   -14.58122  -10.95201  -12.11383
       H   -19.57814  -15.11150   -7.67719
       O   -19.06743  -14.90056   -6.87269
      H1   -19.00755  -15.85710   -6.52817
       H   -15.49368  -12.55814   -0.76460
       O   -15.37337  -12.29373   -1.68673
      H1   -16.22829  -12.61239   -2.05378
       H   -19.04897   -9.59954   -9.84135
       O   -18.95294  -10.45094  -10.30925
      H1   -19.28993  -11.09177   -9.65391
       H   -11.39683  -12.77438   -5.13186
       O   -11.16429  -13.15266   -6.01006
      H1   -11.98141  -13.18508   -6.51228
       H   -17.93512  -14.51359   -8.01677
       O   -17.47445  -14.22911   -8.88122
      H1   -16.61175  -14.23939   -8.49840
       H   -17.96597  -15.34953   -2.66032
       O   -17.72026  -16.20492   -3.03605
      H1   -16.83739  -16.29320   -2.60938
       H   -11.36827   -8.82933   -5.25260
       O   -10.36255   -8.73267   -5.28804
      H1   -10.03071   -9.53734   -5.72705
       H   -12.36861  -14.23920  -11.11600
       O   -12.65107  -14.52265  -11.97265
      H1   -12.35861  -15.48665  -12.00468
       H   -18.00651  -11.25425    1.01298
       O   -17.24854  -10.96898    1.56308
      H1   -17.70789  -11.05317    2.44021
       H   -19.68673  -17.23212   -8.90036
       O   -18.76977  -17.71867   -8.82955
      H1   -18.99485  -18.34853   -8.15512
       H   -17.13407  -16.21265  -14.38933
       O   -16.30022  -15.68373  -14.27697
      H1   -16.57402  -14.84760  -14.61952
       H   -14.23585  -14.13295   -4.22992
       O   -13.87896  -14.64198   -3.47816
      H1   -14.57192  -14.59959   -2.83118
       H   -16.14210  -15.60596   -0.37622
       O   -15.84950  -15.66026   -1.30933
      H1   -15.73714  -16.59530   -1.40903
       H   -18.21991  -19.77490  -11.46784
       O   -17.64762  -19.30462  -10.89717
      H1   -18.25613  -19.00855  -10.24747
       H   -17.66524   -7.86454   -0.67047
       O   -17.19515   -7.06038   -0.63857
      H1   -16.81672   -6.99790    0.23282
       H   -16.86132  -10.89766  -12.41450
       O   -16.57613  -10.25435  -11.76855
      H1   -17.27750  -10.49189  -11.11637
       H   -18.18702   -4.84623   -2.22028
       O   -19.03061   -5.06259   -1.78641
      H1   -18.75010   -5.35441   -0.85982
       H   -19.15319   -8.07610   -3.18391
       O   -19.20288   -7.98074   -2.22676
      H1   -19.10615   -7.01816   -2.07594
       H   -17.03767  -15.13516  -12.09748
       O   -17.31526  -15.66077  -11.35852
      H1   -17.48040  -14.98873  -10.65247
       H   -13.23551   -6.76593   -6.76748
       O   -14.08057   -6.60988   -7.24719
      H1   -14.56500   -7.30968   -6.80387
       H   -16.83142  -18.53487   -5.16928
       O   -15.96407  -18.84765   -4.84461
      H1   -16.28099  -19.61454   -4.38656
       H   -14.49960  -17.75846   -2.67425
       O   -15.45311  -17.94848   -2.39448
      H1   -15.88233  -18.07243   -3.26412
       H   -16.11876   -9.63592   -3.13946
       O   -16.65231  -10.20385   -2.59710
      H1   -15.98649  -10.73093   -2.15804
       H   -13.65724  -11.49915   -6.01780
       O   -13.27816  -10.72567   -6.44563
      H1   -13.21623  -10.14976   -5.61612
       H   -20.04095  -11.38859   -6.93088
       O   -19.77511  -10.79399   -7.63343
      H1   -18.94902  -10.34060   -7.30596
       H   -15.65712  -18.06886  -10.65736
       O   -15.30766  -17.15971  -10.54823
      H1   -16.00799  -16.61237  -10.91481
       H   -15.89487   -5.07093   -2.81683
       O   -16.39905   -4.23338   -2.70822
      H1   -16.10161   -3.87318   -1.86631
       H   -14.66385   -4.89426   -9.92819
       O   -14.15508   -4.57239   -9.20659
      H1   -14.13372   -5.40296   -8.72484
       H   -14.63847  -12.98552    1.12060
       O   -15.62916  -13.06697    0.88522
      H1   -15.88480  -12.27003    1.33211
       H   -15.48921  -17.66809   -7.60656
       O   -16.12931  -17.02707   -7.35773
      H1   -16.70029  -17.04238   -8.16749
       H   -16.58086   -8.46321   -6.04578
       O   -15.78818   -8.80629   -5.71453
      H1   -15.85896   -9.77831   -5.96509
       H   -18.00924  -16.72842   -4.82613
       O   -18.17561  -17.27488   -5.61148
      H1   -17.47358  -17.00818   -6.24621
       H   -15.55160   -6.26106  -11.86736
       O   -14.97328   -5.53149  -11.68098
      H1   -15.52870   -4.75478  -11.72027
       H   -18.79780  -11.26329  -15.34018
       O   -18.54444  -12.01885  -15.95385
      H1   -19.40842  -12.37696  -16.18121
       H   -12.97651  -16.52200   -3.49088
       O   -12.85794  -17.22258   -2.84945
      H1   -12.64845  -17.82796   -3.59967
       H   -15.47976  -12.41155   -5.51263
       O   -14.64071  -12.89325   -5.62269
      H1   -14.68773  -13.38746   -6.47367

