180
frame 2 | Written by MDAnalysis XYZWriter (release 2.4.3)
       H    13.27248  -16.36245  -18.92726
       O    13.92027  -16.73797  -19.52152
      H1    13.39588  -17.41370  -20.01855
       H    16.86457   -6.96818  -16.38583
       O    15.99026   -7.27183  -16.10048
      H1    15.99432   -8.20354  -16.36120
       H    15.17758   -9.56803  -12.97796
       O    14.79351   -9.29677  -13.84140
      H1    14.98872   -8.32808  -13.78008
       H    10.22845   -6.44496  -18.22252
       O    11.06288   -6.91995  -18.35243
      H1    10.71693   -7.66386  -18.84786
       H    12.58085  -11.16817   -9.50811
       O    13.48122  -11.17525   -9.09686
      H1    13.54184  -10.33000   -8.62372
       H     6.73186   -6.69186  -11.85588
       O     7.18754   -5.82476  -11.83938
      H1     7.03976   -5.61645  -12.79189
       H    11.74635   -2.06513  -14.43337
       O    11.34091   -2.88068  -14.17305
      H1    10.95823   -3.25212  -14.99238
       H     3.87181  -14.88016  -14.47485
       O     4.54929  -15.47378  -14.07839
      H1     5.32813  -14.86211  -14.07107
       H    15.73628  -16.40861  -15.42428
       O    15.07450  -17.09901  -15.15363
      H1    15.54144  -17.48324  -14.42773
       H    11.43684  -13.46364  -15.23924
       O    12.20130  -13.79598  -15.71817
      H1    12.67356  -14.14911  -14.97672
       H     8.31934  -17.41769  -13.77553
       O     7.63632  -16.79227  -13.84160
      H1     7.01458  -17.29163  -14.32840
       H    10.23144  -10.19670  -10.43773
       O    11.14028  -10.45659  -10.66596
      H1    11.00885  -11.34337  -11.07263
       H    18.09080   -9.91733  -13.31123
       O    18.15473  -10.89817  -13.17395
      H1    17.70065  -10.96089  -12.33396
       H    12.11922   -7.92734  -17.41180
       O    12.81015   -8.24512  -16.76677
      H1    12.37199   -9.00206  -16.27812
       H    18.03465  -13.75301  -16.56430
       O    18.29334  -13.57057  -17.47225
      H1    18.26647  -12.61996  -17.40344
       H    11.31376  -15.80749  -11.17841
       O    11.48743  -15.54333  -12.10388
      H1    12.41341  -15.30239  -12.06747
       H    12.11012  -17.13165  -12.82145
       O    12.78421  -17.83609  -12.93133
      H1    13.37902  -17.39856  -13.52298
       H     9.31936   -9.16468  -14.71621
       O     8.75191   -8.70899  -15.34413
      H1     8.97345   -7.76962  -15.21808
       H     6.62155  -14.39447  -12.09075
       O     7.01472  -14.17427  -12.99530
      H1     7.34473  -15.01720  -13.25840
       H    11.24651   -6.05819  -15.08472
       O    10.31755   -6.12526  -14.88792
      H1    10.35046   -5.66563  -14.01023
       H     8.90478   -9.29359  -16.81039
       O     9.03206   -9.82080  -17.66691
      H1     8.15874  -10.22898  -17.65384
       H    14.96799   -9.80833  -17.81186
       O    15.83821   -9.44766  -17.92920
      H1    16.44637  -10.16920  -17.56804
       H    14.59393  -14.21979  -14.43227
       O    14.04749  -14.78522  -13.91498
      H1    14.39604  -15.66996  -14.23354
       H    12.64230   -3.91448  -16.40070
       O    12.63607   -4.84023  -16.13469
      H1    12.99677   -5.30320  -16.92397
       H     9.71127   -4.85865  -15.77225
       O     9.18086   -4.25437  -16.31935
      H1     8.36655   -4.15725  -15.73013
       H    11.43999   -7.31920  -10.17027
       O    10.77604   -7.25847   -9.45554
      H1    10.69863   -6.27974   -9.46231
       H     9.36671   -8.39908  -10.08814
       O     8.83120   -9.00202  -10.58645
      H1     8.38326   -8.32573  -11.13416
       H     5.68126   -8.72963  -13.02699
       O     6.55190   -9.06259  -13.23109
      H1     6.78407   -8.51872  -14.04971
       H    15.20823   -6.15185  -14.00551
       O    15.72774   -6.67242  -13.39566
      H1    16.54535   -6.20552  -13.29553
       H    16.42891  -14.81094  -11.67568
       O    15.92825  -14.21224  -12.20698
      H1    15.35138  -14.85138  -12.70468
       H    10.48308  -12.15450  -15.64595
       O     9.80503  -12.68152  -15.19450
      H1     9.24207  -12.02943  -14.80911
       H     6.55590  -10.20815  -18.86771
       O     6.49470  -10.82861  -18.12577
      H1     5.88062  -10.46025  -17.48041
       H    14.70881   -5.05447  -15.74374
       O    15.52951   -4.76177  -15.34001
      H1    16.13500   -5.44795  -15.61779
       H    15.91259  -10.19859  -15.18231
       O    16.59297  -10.75463  -15.65373
      H1    17.21367  -10.89187  -14.92460
       H    12.17411  -10.76988  -16.63906
       O    11.35975  -10.62627  -16.14065
      H1    10.69812  -10.43254  -16.81900
       H     9.42978   -5.66428  -11.84996
       O    10.27508   -5.62241  -12.26209
      H1    10.58439   -6.53197  -12.11258
       H     8.66393  -14.07464  -15.45867
       O     8.03226  -14.77880  -15.72167
      H1     7.97530  -15.26780  -14.87606
       H     7.98190   -5.77063  -18.41431
       O     8.81565   -5.39103  -18.70569
      H1     9.02294   -4.76370  -17.96074
       H    17.66852   -8.39626  -15.23214
       O    17.69745   -8.49308  -14.25808
      H1    16.79362   -8.07154  -14.23241
       H     6.71349  -13.82084  -15.97398
       O     5.82482  -13.38456  -16.03452
      H1     5.98054  -12.45058  -15.73117
       H    12.12858  -13.14669   -8.70787
       O    11.23772  -12.86177   -8.90979
      H1    10.63307  -13.54002   -8.57744
       H     7.01454  -10.73977  -13.74343
       O     7.32131  -11.48717  -14.27842
      H1     7.18025  -12.14187  -13.52962
       H     6.11171   -6.55460  -16.97560
       O     6.93599   -6.92030  -17.26392
      H1     6.75623   -7.89314  -17.14132
       H     8.06892  -16.05374  -19.19377
       O     8.45816  -15.46093  -18.51941
      H1     8.00540  -15.68340  -17.67639
       H    10.99457  -17.08886  -17.54543
       O    10.28144  -17.60372  -18.00281
      H1     9.62518  -16.97501  -18.30600
       H    12.00826  -15.49315  -16.35118
       O    12.30176  -16.16951  -16.97103
      H1    12.64644  -16.90960  -16.42068
       H    10.84339  -10.28423  -14.57880
       O    10.44674  -10.03998  -13.71160
      H1    11.06748   -9.42331  -13.27544
       H    18.44807  -14.36132  -13.90520
       O    18.32499  -13.55212  -14.43577
      H1    18.28662  -12.83110  -13.81664
       H    15.82524   -9.84679  -10.30080
       O    15.15111   -9.61521  -10.95639
      H1    14.38652  -10.03698  -10.66243
       H     6.45337  -13.10184  -10.83916
       O     5.88213  -13.84145  -10.57647
      H1     5.98322  -13.81442   -9.61541
       H    13.43459  -12.85755  -17.23244
       O    13.40603  -12.20451  -17.97212
      H1    14.29997  -12.42891  -18.34986
       H    14.79160   -6.82419  -11.61367
       O    14.18592   -6.80340  -10.85060
      H1    14.30378   -7.70599  -10.42196
       H    12.92855   -7.77910  -11.62959
       O    11.95225   -7.87876  -11.75144
      H1    11.73464   -8.79887  -11.68685
       H    13.02622   -6.84913  -18.64036
       O    13.76645   -6.24073  -18.28964
      H1    14.15784   -6.96735  -17.70829
       H    10.33587  -13.45328  -10.32243
       O     9.83501  -13.49572  -11.14770
      H1    10.42616  -14.12146  -11.60460
       H    16.26200  -13.38486  -15.04516
       O    15.39290  -13.23541  -15.46109
      H1    15.48556  -12.29369  -15.65233
       H     5.20243  -14.40217  -17.41748
       O     4.83216  -14.86249  -18.15421
      H1     5.32379  -15.72517  -18.03187
       H     3.71144  -11.43669  -16.43822
       O     4.36582  -10.75270  -16.16564
      H1     3.77460  -10.09160  -15.86530
       H     8.45059  -12.40197  -10.94623
       O     7.61064  -11.88356  -11.10058
      H1     8.05392  -11.02404  -11.28162
       H     3.93803  -11.68290  -12.05259
       O     4.32881  -10.81176  -11.80873
      H1     5.09208  -10.68875  -12.32051

