180
frame 25 | Written by MDAnalysis XYZWriter (release 2.4.3)
       H     0.02062   -7.61645  -13.31137
       O    -0.70386   -7.11253  -12.88632
      H1    -1.46889   -7.67239  -13.12778
       H    -7.16103   -7.45740  -16.80281
       O    -7.20475   -8.43324  -16.69468
      H1    -6.67527   -8.59686  -17.52834
       H    -3.01820  -11.95319  -18.57362
       O    -3.02643  -12.79470  -19.00010
      H1    -3.61449  -12.60076  -19.77452
       H    -4.46151   -8.18764  -11.55945
       O    -4.71336   -8.64750  -12.41123
      H1    -5.21950   -7.88820  -12.82486
       H    -7.01773   -9.72934  -13.69001
       O    -7.55097   -8.98686  -13.92825
      H1    -7.35704   -8.74678  -14.91900
       H    -5.88016  -14.48136  -13.48029
       O    -5.67076  -13.57084  -13.11852
      H1    -5.05043  -13.77267  -12.41136
       H    -2.39182  -10.99947  -13.65749
       O    -2.54724  -10.75882  -12.71678
      H1    -2.86522   -9.85137  -12.66922
       H     1.15152  -12.07183  -14.81554
       O     1.56070  -12.48048  -15.65139
      H1     1.53728  -13.44301  -15.47657
       H    -3.31263  -11.33529  -10.83444
       O    -4.05864  -11.36960  -10.20749
      H1    -4.21492  -12.28211  -10.06507
       H    -5.69025  -11.81931  -12.65030
       O    -6.08770  -10.94432  -12.58226
      H1    -5.27864  -10.41049  -12.40967
       H    -8.28093  -12.33726  -18.72516
       O    -8.26907  -12.87781  -19.57193
      H1    -8.66493  -13.65718  -19.11683
       H    -1.71539  -16.50673  -16.17034
       O    -1.86763  -17.05249  -16.92391
      H1    -2.13192  -17.86184  -16.49963
       H    -1.39432  -13.67851  -16.52084
       O    -2.06373  -14.13661  -15.87090
      H1    -2.73964  -13.43276  -15.71754
       H    -9.29635   -9.16910  -14.75703
       O   -10.08219   -9.46607  -15.31235
      H1   -10.03110   -8.75817  -16.02205
       H    -8.76309   -8.69451  -17.29477
       O    -9.64987   -8.41215  -17.60592
      H1    -9.81075   -9.16037  -18.21311
       H    -0.45227   -5.91804  -16.66281
       O    -0.17153   -6.79187  -17.01248
      H1    -1.00337   -7.13147  -17.26630
       H    -6.54385  -15.74292  -14.95774
       O    -6.43654  -15.86181  -13.99073
      H1    -5.79264  -16.56067  -14.05331
       H    -9.27664  -10.72643  -16.31781
       O    -8.85254  -11.34187  -16.91011
      H1    -7.99513  -11.46263  -16.47533
       H    -7.87218   -4.91143  -18.20800
       O    -8.40043   -4.86638  -18.98895
      H1    -8.74254   -3.97592  -18.85923
       H    -3.19329   -7.45283   -8.88626
       O    -2.78523   -6.61516   -8.89845
      H1    -2.91024   -6.26589   -7.99460
       H    -7.65211   -7.92083  -12.65326
       O    -7.98702   -7.12575  -12.19757
      H1    -7.62055   -7.21622  -11.32200
       H    -4.57884   -9.37967  -10.05474
       O    -4.41698   -8.46177   -9.85251
      H1    -5.25684   -8.02482  -10.06302
       H    -7.99622   -5.21630  -15.50737
       O    -7.45403   -5.44907  -16.31165
      H1    -6.74994   -4.85415  -16.21076
       H    -2.25457  -15.68811  -11.59063
       O    -2.66654  -16.53373  -11.70639
      H1    -3.65806  -16.42002  -11.75641
       H     2.51074  -14.11444  -19.99376
       O     2.28434  -13.24339  -19.51914
      H1     1.51798  -13.40456  -18.98377
       H    -2.38686   -6.00535  -18.58217
       O    -2.43888   -6.93293  -18.71463
      H1    -3.03445   -7.13181  -17.90312
       H    -1.09556  -14.14221  -11.67197
       O    -1.55007  -14.16122  -10.81440
      H1    -1.09493  -14.91315  -10.35352
       H   -10.33428  -14.08642  -15.54456
       O    -9.40733  -13.80054  -15.28012
      H1    -9.28996  -12.98933  -15.72126
       H    -8.24609  -10.28422   -8.88358
       O    -8.00138  -10.74784   -9.69207
      H1    -7.04611  -10.66654   -9.72651
       H     0.96915   -7.47846  -15.21865
       O     1.22877   -7.99735  -14.42837
      H1     2.17690   -7.77524  -14.28461
       H    -7.30762   -7.04663   -9.15982
       O    -6.69178   -7.04818   -9.88379
      H1    -6.21433   -6.17278   -9.97108
       H    -3.16368  -14.08149  -10.55998
       O    -4.12966  -14.16492  -10.41021
      H1    -4.20392  -14.15232   -9.41847
       H    -3.05805   -4.14015  -15.74447
       O    -3.98938   -3.97069  -15.43334
      H1    -3.73280   -3.24135  -14.81946
       H     2.85377   -9.74640  -19.42892
       O     2.38394   -9.39266  -18.61538
      H1     2.29597   -8.44973  -18.84024
       H     3.69912   -9.78293  -14.08505
       O     3.92212  -10.61889  -13.59503
      H1     2.99048  -10.78268  -13.26163
       H    -5.35217   -8.41087  -19.65045
       O    -5.66866   -9.18243  -19.05509
      H1    -6.41855   -9.58867  -19.54237
       H    -4.23387  -11.50584  -14.47195
       O    -4.03827  -12.31960  -14.98874
      H1    -4.51675  -12.93204  -14.40394
       H    -8.13698  -14.97330  -16.16428
       O    -7.41942  -15.49044  -16.49536
      H1    -6.77303  -14.82478  -16.78124
       H    -4.50365   -6.41531  -16.88841
       O    -3.79022   -6.74054  -16.28522
      H1    -3.68668   -6.07035  -15.60977
       H    -2.69427   -9.45155  -18.24145
       O    -3.24223  -10.18700  -17.99890
      H1    -4.03647   -9.86754  -18.46394
       H    -9.72954   -6.00642  -19.60538
       O   -10.33049   -6.73964  -19.62940
      H1    -9.94529   -7.29127  -18.89241
       H    -0.12170  -12.42531  -18.07571
       O     0.11247  -13.30298  -17.67900
      H1     0.70975  -13.05051  -16.91679
       H    -1.01190  -14.26188  -14.13640
       O    -0.65768  -14.37041  -13.24291
      H1     0.29813  -14.60784  -13.33540
       H    -0.87363   -5.95708  -11.23455
       O    -0.96189   -5.46543  -10.41383
      H1    -1.63269   -5.91402   -9.94047
       H     0.60900  -11.26144  -12.14711
       O     0.67684  -11.54425  -13.09057
      H1     0.26691  -12.42492  -12.97817
       H    -0.91294   -3.62659  -16.06546
       O    -1.53245   -4.31455  -16.46039
      H1    -1.57627   -4.01117  -17.41322
       H    -5.36274   -5.15906  -11.62471
       O    -5.41127   -4.90667  -10.65843
      H1    -4.58069   -5.34914  -10.38089
       H    -0.05752   -9.71839  -11.02983
       O     0.66833  -10.18298  -10.64723
      H1     1.40000   -9.56097  -10.81504
       H     3.36983  -11.60449  -16.64536
       O     3.87960  -10.84798  -16.90917
      H1     3.23069  -10.37654  -17.49117
       H    -7.55689  -13.55515  -12.59763
       O    -8.49817  -13.62120  -12.65362
      H1    -8.70977  -13.61470  -13.57610
       H    -2.31343  -16.03917  -18.36758
       O    -2.72591  -15.82714  -19.25003
      H1    -2.71566  -14.86932  -19.21303
       H    -5.04830  -12.84471  -16.42595
       O    -5.73620  -12.95987  -17.04817
      H1    -5.31555  -13.00848  -17.92135
       H    -5.79250   -2.24214  -16.98373
       O    -6.34990   -3.01755  -17.19415
      H1    -6.04652   -3.29912  -18.10841
       H    -3.40091   -2.96020  -19.20892
       O    -2.96568   -3.86034  -19.03267
      H1    -2.67517   -4.10502  -19.92462
       H     0.89887   -5.63365  -18.31162
       O     0.74274   -4.91270  -18.91280
      H1     0.07960   -5.35150  -19.44694
       H    -3.35719   -9.71174  -16.03260
       O    -3.27712   -9.43936  -15.08813
      H1    -3.62290   -8.53239  -15.13110
       H   -10.40054   -5.93335  -15.50298
       O    -9.97745   -6.24404  -14.66899
      H1   -10.53073   -7.00876  -14.48890
       H    -4.37308   -4.94334  -18.35195
       O    -5.07598   -5.58693  -18.46626
      H1    -5.44944   -5.36473  -19.34047
       H     4.04646   -7.50001  -16.84109
       O     3.81531   -7.74524  -15.94983
      H1     3.36225   -8.61733  -16.08490
       H    -5.78751   -5.34124  -13.63219
       O    -5.71249   -6.16744  -13.13476
      H1    -6.62654   -6.41432  -12.91477

