180
frame 0 | Written by MDAnalysis XYZWriter (release 2.4.3)
       H     2.72763  -11.03504   16.62709
       O     2.70971  -10.07343   16.57943
      H1     2.05612   -9.94098   17.27422
       H    -0.38902  -12.81061   16.56722
       O     0.18161  -12.03953   16.79435
      H1     0.10852  -11.47950   16.01179
       H     4.19261  -10.88355   10.18974
       O     3.40241  -10.29838   10.27871
      H1     2.64175  -10.93560   10.19627
       H     7.76388   -8.92612    8.64656
       O     7.90166   -8.04967    9.07356
      H1     8.13214   -8.22529   10.01700
       H    -0.89529   -7.78644    9.63518
       O    -0.46734   -8.54396   10.02819
      H1     0.10046   -8.94619    9.30448
       H     1.94125  -14.49016    6.78356
       O     1.51955  -13.66589    7.07585
      H1     0.99854  -13.36477    6.25914
       H    -2.70481  -11.63134    6.08900
       O    -2.72839  -10.78770    5.59883
      H1    -1.79886  -10.62217    5.70648
       H    -0.50013  -15.72176    8.44783
       O    -0.19015  -15.59215    7.55356
      H1     0.59364  -15.00378    7.63939
       H     3.74976  -10.93475    6.61981
       O     4.07199  -11.06615    7.50570
      H1     4.92828  -10.61074    7.43340
       H     6.85475  -11.09461    5.92507
       O     6.47739  -11.26458    5.01542
      H1     6.20559  -12.20841    4.97805
       H    -0.90735   -7.73032    7.13927
       O    -1.75068   -7.46613    7.49635
      H1    -1.97103   -6.56015    7.17829
       H     4.73586  -10.94579    4.95468
       O     3.82142  -10.81284    4.80265
      H1     3.66711  -11.19069    3.93360
       H     1.29243   -6.45256   16.70195
       O     1.80143   -7.13894   17.07014
      H1     2.07249   -7.55782   16.20082
       H     1.57580   -8.07594    6.86680
       O     0.82135   -7.58815    6.41063
      H1     1.08027   -7.64706    5.45279
       H     5.44608  -12.05498   11.69546
       O     5.78084  -12.00343   10.84042
      H1     5.93213  -12.91254   10.61868
       H     4.33916   -6.37130    9.20218
       O     3.69322   -6.29468    9.93028
      H1     4.10162   -5.68050   10.58029
       H    -3.27157  -11.55430   11.60508
       O    -3.31668  -11.82737   10.69385
      H1    -3.15288  -11.04536   10.21681
       H    -3.12410  -10.48842    7.62172
       O    -3.06642   -9.78299    8.26673
      H1    -2.60715   -9.06850    7.69773
       H     0.10440  -10.57610    7.59305
       O    -0.37207  -10.13043    6.88584
      H1     0.31070   -9.54003    6.60022
       H     5.47354   -7.50380   10.66530
       O     5.54832   -7.72206   11.58942
      H1     4.70980   -8.17834   11.80213
       H    -2.40808  -12.85958    8.11279
       O    -3.09049  -12.92235    7.40132
      H1    -2.88771  -13.80933    6.99633
       H     8.54550  -11.32822   13.94832
       O     8.25466  -12.08239   13.46687
      H1     7.49523  -12.42306   14.02675
       H    -1.35592  -13.73181    9.83640
       O    -1.38970  -12.82086    9.48556
      H1    -2.16939  -12.44680    9.96272
       H     2.05042  -12.95812   16.60640
       O     2.81604  -13.05574   16.02727
      H1     2.52778  -12.78335   15.12674
       H    -2.24753  -15.69675   10.35252
       O    -1.34713  -15.41421   10.07360
      H1    -0.83105  -16.22262   10.40323
       H     6.24756  -13.24152    7.82441
       O     7.13889  -13.22229    8.12400
      H1     7.47640  -14.05181    7.68383
       H     0.98334  -11.59001   12.95897
       O     1.37935  -12.25747   13.53812
      H1     1.04830  -13.10356   13.22689
       H     0.65536   -6.39545   12.54727
       O     1.10931   -6.50404   11.69782
      H1     0.33191   -6.67850   11.11665
       H     1.96482   -9.20229   15.21216
       O     1.81890   -8.39494   14.68643
      H1     2.41440   -8.51414   13.90162
       H    -0.35798  -14.19449    4.49593
       O     0.26386  -13.45836    4.52797
      H1     0.24378  -12.88634    3.69868
       H     4.86025   -9.23029   14.76009
       O     5.44174  -10.02286   14.86666
      H1     5.21113  -10.27066   15.78604
       H     3.04850   -7.79851   11.83668
       O     3.12401   -8.62198   12.39750
      H1     3.18741   -9.35039   11.74075
       H     7.85475  -11.59785    7.84974
       O     7.88246  -10.62258    7.82578
      H1     8.39321  -10.35136    7.04874
       H     1.04770  -15.27529   14.81098
       O     1.15350  -14.82207   13.93451
      H1     0.20448  -14.69589   13.76971
       H     2.41878   -5.51823    8.80998
       O     1.61921   -5.21263    8.33459
      H1     1.42554   -5.99762    7.83571
       H     5.63005  -15.21199   10.77504
       O     4.79841  -15.02916   10.32726
      H1     4.11763  -15.27423   10.97586
       H     7.74515  -16.04325   11.68630
       O     6.80469  -15.98969   11.89535
      H1     6.93293  -15.89511   12.84314
       H     1.25199   -9.16791   12.57011
       O     0.39666   -9.58327   12.32088
      H1     0.05715   -9.14071   11.46194
       H     0.27467   -5.39654    9.70816
       O    -0.64407   -5.46628    9.83905
      H1    -0.95593   -5.24780    8.94492
       H     0.81902   -6.80069   14.45214
       O     0.07885   -6.22396   14.20518
      H1     0.43586   -5.37594   14.56203
       H     9.08110  -11.47935   10.74530
       O     9.18698  -10.64473   10.29185
      H1     8.74522  -10.85649    9.45179
       H     6.47578   -5.73395    8.27745
       O     5.88843   -6.51503    8.09395
      H1     6.48631   -7.14130    8.55841
       H     6.26862   -6.07103   14.51395
       O     5.88219   -5.80498   13.66483
      H1     5.98356   -6.58081   13.09324
       H    -3.30467  -12.13001   14.87456
       O    -2.80059  -11.76738   14.11057
      H1    -2.35835  -12.52421   13.65268
       H     3.63122   -6.13827   15.56966
       O     3.30323   -5.85382   14.71963
      H1     4.18083   -5.82670   14.26517
       H     3.31385   -7.32036    3.53143
       O     3.99235   -8.05665    3.30454
      H1     3.92674   -8.66158    4.08849
       H     3.42681  -16.60805    7.76014
       O     3.11598  -15.92879    7.09815
      H1     3.62757  -15.13824    7.41212
       H    -3.75678   -9.30826   12.15032
       O    -4.34442   -9.90846   12.58929
      H1    -4.28010   -9.65388   13.53757
       H    -1.55434  -10.68401   14.82934
       O    -0.86242  -10.01146   15.04044
      H1    -0.60799   -9.53092   14.27844
       H     0.00895  -12.07037    8.95113
       O     0.74804  -11.48502    8.79703
      H1     1.26126  -11.95821    8.16067
       H     5.17357  -15.13423   15.15826
       O     4.27412  -15.40230   15.40718
      H1     3.79440  -14.57281   15.52126
       H     7.37886   -9.26761   14.56070
       O     8.37596   -9.21160   14.72777
      H1     8.67859   -9.19711   13.83176
       H     2.48904  -15.38863   13.06800
       O     3.26688  -15.73801   12.60132
      H1     3.98558  -15.24691   13.07894
       H     3.52883  -11.97173   13.40699
       O     4.45687  -12.01004   13.36178
      H1     4.80666  -11.29620   14.00083
       H     4.64017  -14.12869    8.77696
       O     4.51317  -13.84067    7.78493
      H1     4.04617  -13.00366    7.97508
       H     6.01486  -12.60686   15.75937
       O     6.19114  -13.11776   14.98868
      H1     5.40464  -12.98683   14.40737
       H    -1.82049  -15.20790   14.06317
       O    -1.47001  -14.62460   13.38643
      H1    -1.50607  -15.11463   12.59826
       H     1.25206   -4.72397   11.43157
       O     1.29475   -3.81367   11.73684
      H1     1.44286   -3.29846   10.93543
       H    -1.70562   -7.91572   11.99173
       O    -2.64722   -7.84416   11.96450
      H1    -2.84263   -7.09566   12.59972
       H     2.63881   -9.40662    8.78706
       O     2.31272   -8.47756    8.48645
      H1     2.56447   -7.92711    9.24775

