180
frame 7 | Written by MDAnalysis XYZWriter (release 2.4.3)
       H     8.81781   15.43366   -5.87447
       O     9.59828   15.72691   -5.48480
      H1     9.27116   16.21534   -4.72534
       H     6.68033   16.56635    2.15981
       O     6.69969   15.69982    2.63293
      H1     7.67979   15.66557    2.69343
       H    12.86289   14.55322   -0.22815
       O    12.64204   15.13251    0.50456
      H1    11.98894   15.68656    0.12294
       H     1.65336   11.34965   -0.67558
       O     0.67660   11.17117   -0.78376
      H1     0.73438   10.35166   -1.27107
       H     5.67111   11.89969   -2.48255
       O     6.67761   12.07320   -2.21262
      H1     7.20115   11.99421   -3.00084
       H    10.70655   18.21822    0.77591
       O     9.97748   17.58683    0.73014
      H1     9.23904   17.91363    1.28811
       H     8.70037   11.67881    1.45121
       O     7.81278   11.39972    1.04350
      H1     7.33356   12.31999    1.09162
       H     1.96610   14.72329   -1.61555
       O     2.23180   15.63264   -1.41943
      H1     1.45355   16.11894   -1.78711
       H    -0.06270   18.49615   -0.77253
       O    -0.28955   18.13198    0.09360
      H1    -0.96460   18.73535    0.42827
       H     3.09774   14.20786    1.02935
       O     2.89783   13.45485    1.61988
      H1     3.65419   13.71004    2.17738
       H     5.82815   18.92405    3.19572
       O     4.91197   19.12403    3.32416
      H1     4.61508   19.16481    2.41148
       H    13.80132   15.00473   -2.24532
       O    13.58661   14.15184   -1.85917
      H1    12.77674   13.91280   -2.41811
       H     3.85837   11.57057   -1.99513
       O     4.10349   12.02938   -2.86476
      H1     3.85195   11.32875   -3.52934
       H    11.31768   11.28162   -1.17569
       O    12.18359   11.29781   -1.54759
      H1    12.84129   11.43518   -0.82251
       H     8.99648   12.07107   -8.43893
       O     9.39896   12.45514   -7.64186
      H1     9.87636   13.22306   -7.98435
       H     5.77524    9.69875   -0.42104
       O     6.20851    9.61718   -1.32863
      H1     6.48266   10.58698   -1.48212
       H     8.82213   15.39316   -8.95311
       O     9.59372   15.00367   -8.62718
      H1    10.09566   15.85627   -8.56732
       H     9.42090   13.20323   -0.82743
       O     9.16434   14.12121   -0.88113
      H1     9.48412   14.65063   -0.13231
       H     1.29397   13.43808   -7.04694
       O     0.63909   13.73214   -7.65227
      H1     0.08046   14.30594   -7.12424
       H     3.96067   10.93120    0.03833
       O     3.26490   11.46099   -0.33693
      H1     3.17422   12.12278    0.40454
       H     2.65649   13.04062   -2.82575
       O     1.75894   13.21496   -2.48175
      H1     1.56421   12.39758   -2.00428
       H    -0.06307   13.59183   -2.41931
       O    -0.72412   13.98905   -3.00373
      H1    -0.78832   13.39513   -3.78046
       H     8.17701   18.97379   -2.82515
       O     8.26605   18.76291   -1.93092
      H1     8.51142   17.83078   -2.13235
       H     8.70086   14.76711    4.17745
       O     9.23660   15.37764    3.57400
      H1     9.45141   16.06709    4.23328
       H    10.69963   14.68934   -4.35600
       O    11.11169   13.86602   -4.01266
      H1    10.33024   13.28411   -3.95158
       H     2.62297   14.46578   -4.48921
       O     2.27101   13.81130   -5.13903
      H1     1.59794   13.26518   -4.68443
       H     0.91583   18.79838    1.11333
       O     1.30454   19.12436    1.91374
      H1     2.23433   18.85643    1.71275
       H     3.85653   17.51296    0.88112
       O     3.75950   18.46451    0.91782
      H1     4.04593   18.61504    0.04232
       H     3.83788   17.36510   -6.08621
       O     2.92548   17.37797   -5.67153
      H1     2.52475   17.16899   -6.54813
       H     5.94575   11.79385   -6.44577
       O     6.70960   11.66379   -5.85868
      H1     7.30064   11.40325   -6.58212
       H     8.36760   19.13647    3.18066
       O     7.65060   18.92206    2.59141
      H1     7.79652   19.68491    2.04953
       H     8.90526   11.16403   -0.52808
       O     9.68305   11.45026   -1.00800
      H1     9.33878   11.48993   -1.89179
       H     9.62702   11.36891   -4.42602
       O     9.22691   12.05857   -3.92310
      H1     8.48351   12.37627   -4.45502
       H     5.12563   15.34359   -3.01427
       O     5.88150   15.21330   -2.35495
      H1     5.97854   14.24082   -2.42130
       H     7.79623   12.32812    4.75258
       O     7.57077   13.28512    4.68792
      H1     6.68032   13.12131    4.26361
       H     3.55040   15.67413   -0.20095
       O     4.13349   15.62528    0.60127
      H1     4.88206   15.16459    0.19510
       H     6.13008   10.54293    1.18743
       O     5.23687   10.26654    1.03274
      H1     5.03082    9.83985    1.88530
       H     7.99899    8.60896   -5.26411
       O     7.34288    8.78295   -5.96346
      H1     7.13224    9.78031   -5.91369
       H     9.29744   17.82833   -7.16276
       O    10.11185   18.10405   -6.61143
      H1    10.09117   17.28597   -6.07967
       H     9.02265   19.22812   -5.39119
       O     8.28461   19.22997   -4.80771
      H1     7.52686   18.86772   -5.28172
       H     6.36505   14.54506   -9.20873
       O     6.39774   15.35837   -8.62515
      H1     6.68373   15.00447   -7.74100
       H     4.49549    8.67959   -1.43068
       O     3.77565    8.05690   -1.38110
      H1     3.76492    7.53117   -2.18290
       H     8.30535   13.60730   -7.03328
       O     7.68897   14.16511   -6.57605
      H1     7.11304   13.49845   -6.14746
       H     6.56122   14.33254    1.02453
       O     6.23829   13.60344    0.44686
      H1     6.86229   13.74897   -0.33027
       H     7.54424   17.15045   -8.64787
       O     8.35577   17.68872   -8.60128
      H1     8.11405   18.59816   -8.90720
       H    -0.41399   18.29765   -3.09286
       O     0.26368   18.77522   -2.51326
      H1     0.79835   19.28324   -3.16207
       H     3.91903   16.13658    4.03243
       O     4.23617   15.30233    3.75131
      H1     5.09688   15.51445    3.36496
       H     3.08943   13.14845   -8.63797
       O     3.15728   12.78185   -9.51119
      H1     4.05768   12.93454   -9.78260
       H     3.13264   15.67831   -2.87333
       O     3.55162   15.63090   -3.77906
      H1     3.15781   16.40131   -4.27690
       H    12.51669   17.20098   -2.33480
       O    11.63711   17.33452   -1.91408
      H1    12.05783   17.84942   -1.17470
       H     0.11059   15.18859    1.79918
       O     0.22692   14.24755    1.61601
      H1     1.19845   14.11122    1.53259
       H    -0.13981   17.83420   -7.50196
       O    -0.04756   17.72963   -6.50117
      H1     0.36775   16.84559   -6.38561
       H     2.36637    9.23891   -3.22803
       O     2.87710    9.83339   -3.74629
      H1     2.87820    9.34909   -4.58523
       H     3.63513   13.28325   -6.10782
       O     4.07194   12.63007   -6.70389
      H1     3.42549   11.87059   -6.71344
       H     4.62255   18.58050   -9.14485
       O     4.86654   18.21916   -8.24434
      H1     4.76715   17.29235   -8.29698
       H     5.89685   18.55363   -6.66978
       O     6.10136   18.06793   -5.83454
      H1     5.63438   18.65220   -5.18802
       H     3.04459    8.92505   -6.97165
       O     3.30271    9.77511   -6.49621
      H1     2.44025   10.21461   -6.38584
       H     9.15759   15.60991   -2.18219
       O     9.24417   16.40101   -2.77746
      H1    10.07953   16.74893   -2.37096
       H     5.23690   12.43763    2.18875
       O     5.43304   12.73628    3.09602
      H1     5.06866   11.89044    3.54249
       H     6.38684   18.38462   -1.69568
       O     5.48560   18.11867   -1.55098
      H1     5.59652   17.13746   -1.59948

