180
frame 3 | Written by MDAnalysis XYZWriter (release 2.4.3)
       H    -1.03980    1.49666   14.06053
       O    -1.35277    2.34032   14.43826
      H1    -1.39386    2.84417   13.62204
       H    -4.46537    6.70991   10.31322
       O    -3.71882    6.14116   10.06543
      H1    -3.60626    6.46206    9.14716
       H    -4.67778    4.57887   16.63249
       O    -4.90755    5.07654   17.42628
      H1    -4.01106    5.19862   17.79807
       H    -2.10841    5.76503   18.48786
       O    -2.14517    5.27932   17.65314
      H1    -1.47736    4.52694   17.83438
       H    -3.49258   -1.38364    9.87971
       O    -3.91441   -2.05627    9.34836
      H1    -3.18472   -2.60907    9.01711
       H     1.97105    1.21771    7.01120
       O     1.84006    0.59586    7.77173
      H1     1.80269    1.21549    8.53615
       H     0.48364    2.81588   16.86061
       O    -0.44349    2.73046   17.13817
      H1    -0.78341    2.10532   16.47575
       H     2.64733   -0.26055   14.78946
       O     3.38913    0.39641   14.69405
      H1     2.95103    1.23751   15.05862
       H    -1.37416    4.32199   10.55333
       O    -1.52499    3.63386    9.88363
      H1    -2.30982    3.99667    9.40992
       H    -1.87187    0.29508   16.75387
       O    -1.18390   -0.32997   16.49768
      H1    -0.48007   -0.20347   17.22524
       H     1.36998    3.45416    7.96337
       O     1.82076    3.19267    8.83737
      H1     1.78025    3.98571    9.32450
       H    -3.69300    3.24507    7.78146
       O    -3.69915    4.17895    7.99056
      H1    -4.38338    4.26982    8.66638
       H     2.39560   -1.51298   17.92903
       O     1.79384   -2.18866   17.70487
      H1     2.01368   -2.90387   18.32399
       H    -2.07929   -4.61553   11.70542
       O    -1.59049   -3.96580   11.14473
      H1    -1.22251   -4.61094   10.46649
       H    -3.68788   -3.61971   12.50765
       O    -4.07583   -2.78745   12.18575
      H1    -3.72036   -2.68069   11.24224
       H     0.13323   -0.36164    8.32995
       O    -0.62371   -0.94215    8.56842
      H1    -0.90016   -0.52501    9.34292
       H     4.55386    5.55824   12.29328
       O     4.16516    6.39144   12.59978
      H1     3.30584    6.17918   12.18648
       H     0.94577    0.16355   10.39755
       O     1.72503   -0.29605   10.69481
      H1     1.55711   -1.13741   10.25430
       H    -4.03826    2.86061   12.83239
       O    -4.43715    2.10880   12.46525
      H1    -4.07592    1.34032   12.95030
       H    -6.36379    4.14569    9.77270
       O    -5.91003    3.37975    9.40582
      H1    -6.66205    2.73099    9.43054
       H     5.04522   -0.22057   12.56081
       O     5.83868   -0.75753   12.70984
      H1     5.61116   -1.50790   13.31055
       H     1.55186    5.66355   11.44864
       O     2.18724    4.89481   11.25426
      H1     1.78634    4.21259   11.80556
       H    -8.32849    3.29388   14.45620
       O    -7.80680    2.70020   13.88239
      H1    -7.36306    2.02830   14.39974
       H     4.66870    4.82889   14.64455
       O     4.04416    4.91573   15.42573
      H1     4.73363    5.17166   16.04930
       H     4.12648    0.74500   18.01376
       O     3.60573    0.04087   18.40412
      H1     4.18990   -0.33992   19.10463
       H     0.42422    6.94818   16.38133
       O     0.15189    7.13292   15.51447
      H1    -0.80372    6.88456   15.46528
       H    -2.45358   -1.63835   17.31456
       O    -3.01080   -2.46267   17.28979
      H1    -2.38418   -3.11206   16.88984
       H     1.08694   10.20706   15.17240
       O     0.22061    9.87257   14.86863
      H1     0.41899    8.96256   14.77700
       H     0.71244    4.13873   15.48805
       O     1.59744    3.80756   15.35092
      H1     2.23806    4.49781   15.29810
       H    -6.12892   -3.51416   18.12434
       O    -5.84349   -2.61791   17.89573
      H1    -4.88648   -2.61360   17.84085
       H    -2.01776    6.45999   10.15702
       O    -1.09965    6.61111   10.52983
      H1    -0.64512    6.38788    9.69174
       H     0.74092   -3.21793   13.43905
       O    -0.23371   -3.40158   13.42350
      H1    -0.50038   -3.24051   12.52577
       H     0.46366    7.77740   18.25249
       O     1.13972    7.12124   17.93082
      H1     1.38769    6.80235   18.80177
       H    -5.50278   -1.88400   14.66763
       O    -6.12541   -1.60546   15.32002
      H1    -5.77889   -2.14382   16.08814
       H     1.66642    0.30728   18.59872
       O     0.65996    0.39563   18.60319
      H1     0.52801    1.32557   18.81156
       H     2.74779   -2.48143   12.95964
       O     2.14146   -1.79203   13.22672
      H1     1.89850   -1.44056   12.40463
       H    -0.05576   -1.08179   13.71955
       O    -0.36911   -0.18144   13.95195
      H1    -0.60188   -0.28996   14.93928
       H     3.24749    2.73433   17.31996
       O     3.84750    2.22358   16.72339
      H1     4.01509    2.97984   16.13791
       H    -5.24320    4.29784   13.86225
       O    -5.77958    4.47181   14.65492
      H1    -6.59491    4.17910   14.29624
       H    -2.10332   -3.46037   19.93387
       O    -1.71325   -2.61713   19.66495
      H1    -2.18224   -2.57897   18.83501
       H    -5.90830    1.14917   12.26102
       O    -6.56497    0.50093   11.95974
      H1    -6.93630    0.88559   11.15832
       H    -7.45085    4.75169   18.94945
       O    -7.48055    4.66089   17.95479
      H1    -6.53865    4.73730   17.68401
       H    -3.72612    5.23484   13.69418
       O    -3.83505    4.74224   12.84165
      H1    -4.33213    5.42215   12.32814
       H    -0.69547   -3.47702   15.22125
       O    -0.71188   -3.57962   16.19024
      H1     0.20002   -3.34786   16.40251
       H     3.34030    0.73479   13.00020
       O     3.52275    1.09307   12.11058
      H1     2.82490    0.54480   11.64905
       H    -3.84175    0.48592   15.63815
       O    -3.52863    1.18843   16.25568
      H1    -3.78698    1.96014   15.74968
       H    -0.08953    1.97283   12.01063
       O    -0.44173    1.45955   11.26532
      H1    -0.82492    2.11323   10.70978
       H    -2.54245    6.10572   16.01537
       O    -2.64256    6.30196   15.08383
      H1    -2.92258    7.24801   15.18040
       H    -7.39606    1.39094   18.83225
       O    -6.76734    1.96694   18.42978
      H1    -7.32773    2.78956   18.32440
       H    -1.99367    5.08710   12.79315
       O    -1.03275    4.99955   12.55356
      H1    -0.99813    5.59191   11.75690
       H    -5.91042    7.57216   11.96479
       O    -5.85525    6.66152   12.35901
      H1    -6.60126    6.12687   11.99231
       H    -2.80328    0.09075   11.20744
       O    -2.31302   -0.78770   11.25249
      H1    -1.57826   -0.46280   11.81209
       H     0.47498    7.76789   11.61032
       O     0.95231    7.52393   12.41371
      H1     0.20573    7.10522   12.92574
       H    -2.66011   -0.54964   13.88310
       O    -3.59882   -0.24317   13.83189
      H1    -3.85008   -0.97543   13.26617
       H    -6.99910    1.40478   16.73350
       O    -7.27976    0.91132   15.90810
      H1    -6.64635    0.13328   15.89522
       H    -2.78879    9.64082   15.56330
       O    -3.37977    8.89718   15.66370
      H1    -4.31399    9.36679   15.68966
       H     2.17941    2.41118   12.87629
       O     1.26516    2.76347   12.88004
      H1     1.27623    3.22365   13.76010
       H    -2.95520    1.89786    9.51968
       O    -3.66915    1.23665    9.66262
      H1    -4.37321    1.80865    9.96484
       H     3.46562   -2.65235   15.81211
       O     3.74396   -3.50628   15.42343
      H1     4.50775   -3.22937   14.91009
       H     2.61934    2.78396   19.27006
       O     2.24148    3.47094   18.66331
      H1     2.62406    4.30629   19.05737

