180
frame 9 | Written by MDAnalysis XYZWriter (release 2.4.3)
       H    -2.21179   15.97338   -1.53136
       O    -2.28790   16.93864   -1.56425
      H1    -2.08429   17.11301   -0.62208
       H    -5.90781   18.29898   -7.82385
       O    -4.94214   18.28881   -7.95551
      H1    -4.75613   18.55058   -7.05389
       H    -3.57698   16.69032   -4.55018
       O    -2.78537   16.14430   -4.61108
      H1    -3.06886   15.28472   -4.25446
       H    -6.78931   14.68054    3.98023
       O    -6.14806   15.12406    4.59513
      H1    -6.38983   16.04159    4.21692
       H   -14.02016   19.18123   -3.20923
       O   -13.55888   18.46514   -3.68937
      H1   -14.03241   17.71672   -3.36671
       H   -13.59543   19.57936   -7.62506
       O   -14.49489   19.36338   -7.74852
      H1   -14.52424   18.87110   -8.58303
       H    -5.89384   17.96415   -4.81687
       O    -5.63275   17.13183   -4.35049
      H1    -5.87787   16.49953   -5.05266
       H    -0.60478   18.05478    0.24770
       O    -1.26307   17.80408    0.87593
      H1    -1.81375   18.52026    1.08849
       H   -10.69425   12.73665    2.58907
       O   -11.21878   13.40798    3.16939
      H1   -10.71641   14.21593    2.99122
       H    -6.06597   18.27448   -0.95073
       O    -5.38743   18.84248   -0.52386
      H1    -5.96139   19.62538   -0.23016
       H    -9.06392   15.23149    0.30777
       O    -8.20242   15.57252    0.57059
      H1    -7.65254   14.96981    0.10361
       H    -4.18248   13.76680    1.44011
       O    -4.91672   14.34671    1.29057
      H1    -5.74785   13.78655    1.40655
       H    -4.07436   18.74358    1.73526
       O    -3.31340   19.35983    1.69401
      H1    -3.41756   19.70304    0.78861
       H   -14.38169   14.54176   -4.89777
       O   -14.40388   15.37091   -5.30009
      H1   -15.30188   15.58075   -5.01384
       H   -13.57840   19.79689    3.22217
       O   -12.94351   19.14325    2.90292
      H1   -12.43327   19.57340    2.20116
       H    -7.43837   16.17304   -2.25523
       O    -7.20663   17.10149   -2.14297
      H1    -6.57817   17.17602   -2.82328
       H    -1.77346   17.42825   -4.31031
       O    -1.17713   18.18620   -4.38671
      H1    -0.71101   18.08954   -5.24154
       H   -11.29982   11.90457   -1.81227
       O   -10.99422   11.83296   -0.93091
      H1   -11.47568   11.04800   -0.57623
       H    -6.77633   12.18629    1.82408
       O    -6.67519   11.99111    0.87635
      H1    -5.85721   11.41434    0.87982
       H    -9.94996   10.49845    2.88916
       O    -9.89721   11.13089    2.13618
      H1   -10.78375   10.97595    1.70266
       H    -4.35759   12.97989   -3.05786
       O    -3.81572   13.66393   -3.46538
      H1    -2.88096   13.63918   -3.00405
       H    -8.08526   18.73099   -8.48679
       O    -7.65313   17.90900   -8.73013
      H1    -7.42117   18.16235   -9.65402
       H    -3.93264   11.61001   -0.99845
       O    -4.67584   12.07748   -1.42847
      H1    -4.68938   12.94044   -1.01594
       H   -13.69583   18.20119    1.53282
       O   -13.51605   17.74247    0.69252
      H1   -14.18595   18.12425    0.04435
       H    -8.98519   14.82332   -6.74091
       O    -8.63561   13.96462   -6.68415
      H1    -8.99375   13.71286   -5.83654
       H    -5.77524   18.57198    4.34655
       O    -5.00270   18.92072    4.79088
      H1    -5.19931   18.79792    5.71575
       H   -10.64412   16.56292   -6.83577
       O    -9.72117   16.42064   -7.20060
      H1    -9.24255   17.19420   -6.80126
       H    -4.08920   16.17401    4.84836
       O    -3.46346   16.69165    4.29816
      H1    -4.06145   17.42365    4.20621
       H    -7.38633   12.21544   -3.98513
       O    -6.47731   12.42759   -3.83580
      H1    -6.07661   11.52503   -3.92631
       H    -9.70545   12.81462    5.96701
       O   -10.34649   12.29614    5.48833
      H1   -10.54048   12.87978    4.69616
       H   -12.95249   15.53183   -4.01915
       O   -12.34453   14.98212   -3.51802
      H1   -11.69700   15.70693   -3.19651
       H    -8.96050   18.66426   -0.99976
       O    -9.16070   18.29339   -0.12910
      H1    -8.61486   17.40698   -0.24868
       H    -8.53391   17.79847    6.31925
       O    -8.15774   17.37805    7.11999
      H1    -7.91299   18.13025    7.69923
       H   -15.12618   15.84500   -0.18853
       O   -15.93128   15.39102    0.15365
      H1   -15.87799   15.69369    1.07384
       H    -6.83252   14.44721   -6.11868
       O    -5.96226   14.73689   -5.73587
      H1    -5.88666   14.15248   -4.92818
       H   -12.71179   15.73490    3.08556
       O   -12.42133   16.18559    3.87157
      H1   -12.48802   17.07890    3.48481
       H    -6.24223   12.74183    4.28237
       O    -6.82573   12.66050    3.42705
      H1    -7.69990   12.63019    3.86874
       H   -12.13703   17.62700   -6.40546
       O   -11.58061   18.15867   -5.74542
      H1   -12.28594   18.47069   -5.09315
       H    -8.96934   14.25533   -2.15927
       O    -9.42833   14.74543   -2.84567
      H1   -10.15994   14.23127   -3.19851
       H    -9.09505   15.97045    3.48364
       O    -8.92266   15.12010    3.07354
      H1    -8.51081   15.37740    2.27775
       H    -4.46996   19.09767   -2.29778
       O    -3.77332   19.18411   -2.92786
      H1    -3.42848   18.24771   -2.80462
       H    -9.08875   11.17701   -5.21961
       O    -9.07568   11.76239   -4.41144
      H1    -9.22045   11.04572   -3.77187
       H   -15.67412   19.12874    2.78243
       O   -16.10941   18.27801    2.68102
      H1   -16.56581   18.31109    1.81150
       H   -13.35320   16.89477   -1.80832
       O   -14.10720   16.32055   -1.83854
      H1   -13.75523   15.55485   -2.37241
       H    -7.65423   14.74385    5.65892
       O    -8.38277   14.35621    6.14022
      H1    -9.13355   14.98039    6.07583
       H   -10.60338   16.64960    6.35888
       O   -10.32662   16.04425    5.65302
      H1   -11.09846   15.87670    5.11526
       H   -10.80402   13.63856   -0.41596
       O   -10.79174   14.53283   -0.14000
      H1   -10.96221   14.96400   -0.97117
       H   -13.72452   12.61306   -3.69282
       O   -12.93367   12.15429   -3.50630
      H1   -12.76744   11.53641   -4.28319
       H    -5.02140   17.60582    0.56787
       O    -5.10816   17.08997    1.40071
      H1    -4.77498   16.25563    1.12980
       H   -13.86764   13.21835    2.22821
       O   -14.37904   12.41345    2.37173
      H1   -13.98070   11.96375    3.11198
       H   -12.63442   15.91904   -8.03389
       O   -12.73925   16.64088   -7.41012
      H1   -13.35344   16.15088   -6.84717
       H   -10.60106   18.88915    3.35900
       O   -10.08870   18.24634    3.80760
      H1   -10.65325   17.76958    4.49160
       H   -16.96490   17.56621   -2.04518
       O   -16.17009   17.55110   -2.59255
      H1   -15.58448   17.11984   -1.93264
       H    -7.31211   12.65813   -0.61090
       O    -7.73253   13.31197   -1.23312
      H1    -7.41587   12.94682   -2.11968
       H   -13.54442   15.86121    1.01686
       O   -13.18375   15.13387    1.54011
      H1   -12.46536   14.70661    1.06938
       H    -9.99007   10.54962   -1.61076
       O    -9.44014    9.90890   -2.16401
      H1    -8.65675    9.69267   -1.60591
       H   -12.04188   18.17967   -2.84465
       O   -11.42567   17.56953   -2.32189
      H1   -11.02926   18.16135   -1.71815
       H   -11.64717   14.31595   -5.27191
       O   -11.58279   13.47604   -5.68726
      H1   -11.86239   12.90799   -4.94713
       H    -6.41244   17.54156    2.66014
       O    -6.84101   17.63718    3.56084
      H1    -7.64477   18.11648    3.31127
       H    -8.58726   17.08619   -4.16233
       O    -8.91834   17.80269   -4.71759
      H1    -9.84741   17.67864   -4.89836

