180
frame 0 | Written by MDAnalysis XYZWriter (release 2.4.3)
       H    -1.66036   13.46912   -1.41325
       O    -1.49764   13.63034   -0.45695
      H1    -1.81445   14.53276   -0.30974
       H    -2.66187   14.63656    7.77484
       O    -2.07028   14.64938    6.97150
      H1    -1.16419   14.84301    7.38076
       H    -1.65204   18.30597   -0.90975
       O    -1.11213   19.13929   -0.76542
      H1    -0.98512   19.36789   -1.69213
       H    -0.69496   11.22367   -1.04862
       O    -0.86903   10.26424   -1.06387
      H1     0.09951    9.90854   -1.08824
       H    -3.89617   17.79924    3.53464
       O    -2.93381   17.54291    3.77681
      H1    -2.43875   18.02579    3.10990
       H    -4.33504    8.86820    7.00863
       O    -5.31376    8.99034    7.07759
      H1    -5.61888    8.11260    7.29665
       H    -0.72569   11.07226    5.05557
       O    -0.95826   10.22485    4.60140
      H1    -0.91783   10.48801    3.69832
       H    -0.12356   12.05045    8.30511
       O    -0.70556   11.93038    9.10796
      H1     0.04532   11.63632    9.59393
       H     3.36064   15.86587   -1.97497
       O     3.78138   16.73849   -2.21938
      H1     3.13965   17.08116   -2.90283
       H    -3.22773   13.74017    5.77063
       O    -3.80678   13.10763    5.32233
      H1    -4.23443   12.65249    6.03019
       H    -5.39063   16.48463    6.45298
       O    -4.85088   15.71034    6.60709
      H1    -5.15222   15.11628    5.79817
       H     1.98371   17.82151   -1.17593
       O     1.84421   18.11158   -0.26451
      H1     1.07068   18.65064   -0.45348
       H     4.90942   14.71883    1.83839
       O     4.18335   14.33908    1.29301
      H1     4.36097   13.39815    1.19791
       H    -7.36875   16.21716    2.24540
       O    -6.46966   16.22779    2.59761
      H1    -6.26416   17.15854    2.62008
       H     1.52056   12.34061    2.04723
       O     1.66756   11.45198    2.34662
      H1     0.79975   11.02639    2.22267
       H    -5.07082    7.51833    1.99718
       O    -4.75947    8.32121    1.67520
      H1    -4.86628    8.96357    2.46728
       H    -0.18721   13.88950    2.30498
       O    -0.53800   13.68698    3.23928
      H1    -1.49191   13.95802    3.14104
       H     4.31460   11.72396   -1.14290
       O     3.48641   11.83967   -1.63650
      H1     2.92726   11.12456   -1.38657
       H    -5.23978   12.29684    0.09743
       O    -5.64245   12.40833   -0.76817
      H1    -6.41591   11.82219   -0.71848
       H    -3.02078   16.46768   -0.61860
       O    -2.18939   16.71851   -1.07740
      H1    -2.29627   16.27227   -1.90564
       H     5.55063   11.34752    0.63017
       O     5.86752   11.28921   -0.30455
      H1     6.24906   12.20459   -0.42765
       H    -6.75362   14.77938    9.08745
       O    -6.60683   14.24358    8.29012
      H1    -6.01849   14.81550    7.81801
       H     4.85072    9.80239    2.07200
       O     4.38211   10.68585    1.96312
      H1     3.41082   10.47046    2.22905
       H    -3.77897    8.44926   -0.00010
       O    -3.32267    8.57814   -0.83596
      H1    -2.68949    9.32899   -0.67989
       H     2.85546   13.51724   -1.63701
       O     2.37053   14.37819   -1.55982
      H1     2.11691   14.30260   -0.63663
       H     2.00144   14.45013    5.11220
       O     1.03965   14.41894    5.33187
      H1     0.56463   14.38829    4.48250
       H     1.33443   14.19493   -2.97815
       O     0.83441   14.09996   -3.80696
      H1     0.22639   13.33291   -3.55469
       H    -0.02868   12.92812    5.85303
       O    -0.63054   12.19764    6.23050
      H1    -1.35098   12.80634    6.45542
       H     2.84875   18.59077    1.48904
       O     2.95219   18.78439    2.44193
      H1     3.89605   18.82696    2.56402
       H    -3.18942   15.90948    3.28673
       O    -3.04879   14.97091    2.89900
      H1    -3.71466   14.95184    2.22220
       H     2.83399   12.35863    7.78476
       O     2.01896   11.85877    7.90721
      H1     1.90678   11.59130    6.92761
       H    -1.01164   10.17799    1.10658
       O    -0.79093   10.15763    2.06089
      H1    -0.91721    9.24580    2.33841
       H    -5.42827   11.11336    7.70186
       O    -5.01710   11.98349    7.71352
      H1    -5.69326   12.60968    7.88926
       H    -1.88718   13.05478    9.92378
       O    -2.49700   13.44510   10.58011
      H1    -2.48326   14.37994   10.27042
       H    -2.86971   16.74310    9.18819
       O    -2.50846   16.27889    9.97873
      H1    -1.58685   16.49722    9.87230
       H     5.21194   12.80134    7.71543
       O     4.31967   13.13610    7.77036
      H1     4.14110   13.55730    6.87952
       H     0.13935    7.04986    1.95552
       O    -0.76759    7.23133    2.23219
      H1    -0.80142    6.79050    3.05945
       H    -6.90082   12.92281    4.85209
       O    -6.96720   11.99864    4.52540
      H1    -7.76218   11.56204    5.06936
       H    -5.15028   14.03749    4.47447
       O    -5.98716   14.49615    4.53440
      H1    -5.98077   15.04020    3.73276
       H    -1.19532   16.67021   -4.25938
       O    -0.93346   16.01131   -3.55670
      H1    -0.68542   15.28990   -4.14805
       H     1.73348   13.18648   10.43245
       O     1.73446   14.13152   10.42617
      H1     1.32925   14.37924    9.53692
       H    -2.09146    9.06176   -3.63367
       O    -1.61627    9.87539   -3.70776
      H1    -1.32313   10.06849   -2.79792
       H     0.29982   16.09631    8.50045
       O     0.42935   15.19024    8.17858
      H1     1.17475   15.35405    7.52003
       H     1.74104   17.28413    5.86783
       O     2.66248   17.29977    6.08824
      H1     2.85194   18.21543    5.73524
       H    -2.35301   11.25207    9.14397
       O    -3.05279   10.62016    9.01248
      H1    -3.73893   11.18398    8.69530
       H    -2.86276   16.76897    6.56498
       O    -2.33901   17.61695    6.72858
      H1    -2.58072   18.12894    5.96264
       H     4.15208    9.52620    0.64697
       O     4.28522    8.81735   -0.04897
      H1     4.74059    9.21323   -0.80088
       H    -3.55418   11.59750    2.04922
       O    -3.86946   12.17766    1.30083
      H1    -2.98748   12.40229    0.91398
       H    -2.32473    9.43716    7.49810
       O    -2.26588    8.81224    6.81199
      H1    -1.66781    9.29743    6.14571
       H    -5.63239   15.76184    1.05643
       O    -5.06560   15.43015    0.35885
      H1    -5.61037   14.69095   -0.03836
       H     3.53459   15.67881    5.45872
       O     3.92102   14.76443    5.43955
      H1     4.54697   14.90344    4.69797
       H    -0.14779   17.10867    4.41383
       O    -0.00848   17.68497    5.14003
      H1    -0.63490   17.31205    5.82049
       H     1.18598    8.42381   -1.77635
       O     1.69104    9.23167   -1.40681
      H1     2.46433    8.84003   -0.92104
       H     2.66960    8.21035    6.80550
       O     2.18702    7.96482    6.03285
      H1     2.07014    8.90828    5.66168
       H     3.36856   10.66283    5.13090
       O     2.42278   10.87073    5.02927
      H1     2.36626   11.16115    4.07782
       H    -4.01659   11.04998    4.13611
       O    -3.86635   10.31613    3.54913
      H1    -2.97012    9.98930    3.72760
       H     1.13537   15.24843    1.15392
       O     1.42866   14.31663    1.29075
      H1     2.37234   14.52411    1.42204
       H     0.38110   16.94334    0.15851
       O    -0.09944   16.45547    0.86057
      H1    -0.96136   16.53164    0.47632
       H     5.21591   11.25145    3.84942
       O     5.92972   11.67024    4.38159
      H1     6.66178   11.14728    4.02349
       H    -4.05114   19.48881    2.03712
       O    -4.84876   18.92249    2.05322
      H1    -4.88367   18.66113    1.11674

