180
frame 7 | Written by MDAnalysis XYZWriter (release 2.4.3)
       H    -1.43540   -9.37007  -14.57099
       O    -1.46417   -8.85827  -13.73458
      H1    -1.18051   -9.57133  -13.11513
       H    -5.42424   -7.37127  -10.88090
       O    -6.33486   -7.14661  -10.52513
      H1    -6.13341   -6.62845   -9.68283
       H    -5.64694  -10.55790  -18.60850
       O    -5.75866  -10.46049  -19.59847
      H1    -5.85214  -11.35480  -19.86203
       H    -4.40146  -13.20306  -15.23147
       O    -5.33856  -13.31545  -15.41871
      H1    -5.52420  -12.59209  -16.05767
       H    -1.75220   -2.86230  -12.92561
       O    -2.24426   -2.26472  -13.49560
      H1    -2.01462   -1.37129  -13.11431
       H   -10.56282   -6.48705  -18.76082
       O   -10.60428   -7.24649  -18.19864
      H1   -10.98808   -7.86652  -18.80449
       H    -6.03763  -13.41758  -13.65997
       O    -6.21808  -13.67429  -12.71689
      H1    -6.45186  -14.59577  -12.75699
       H    -2.49825  -12.43589  -15.17539
       O    -2.75966  -11.86149  -14.45425
      H1    -2.54089  -12.47857  -13.67528
       H    -2.73846  -10.87132  -18.76797
       O    -2.88034  -10.91967  -17.79272
      H1    -2.89046  -11.91226  -17.71801
       H    -5.99235   -2.29191  -13.54368
       O    -6.59631   -1.74921  -14.06136
      H1    -6.29879   -0.84321  -13.90603
       H    -8.81670  -11.96580  -13.70948
       O    -8.40830  -11.52664  -14.49570
      H1    -8.31518  -10.69323  -14.04925
       H    -7.10772   -7.73767  -14.83854
       O    -6.99314   -8.57709  -15.24688
      H1    -6.11837   -8.40170  -15.62080
       H    -5.01567   -1.99998  -15.37017
       O    -4.52684   -2.32155  -16.11430
      H1    -5.20518   -2.38829  -16.78377
       H   -10.38203   -6.29223  -14.24367
       O   -10.70454   -7.10296  -13.86032
      H1   -11.25117   -7.40931  -14.57577
       H    -1.35167  -13.65026  -17.10513
       O    -2.29475  -13.67143  -16.72711
      H1    -2.35184  -14.61957  -16.63411
       H    -9.61658   -4.98847  -12.54087
       O    -9.18256   -4.48222  -11.83309
      H1    -9.49003   -4.93628  -10.97218
       H   -11.18456  -10.42127  -19.12748
       O   -12.00702  -10.20225  -19.62136
      H1   -12.64734  -10.17879  -18.88875
       H    -7.34501   -4.71040  -12.20457
       O    -6.49691   -5.01237  -12.50690
      H1    -6.34760   -5.69268  -11.83818
       H    -4.31015   -6.17372  -19.58190
       O    -4.55311   -6.92559  -19.02402
      H1    -5.21416   -7.27863  -19.54811
       H    -9.00588  -11.21171  -18.51759
       O    -9.61819  -10.44034  -18.30290
      H1    -8.90904   -9.77936  -18.15334
       H    -2.15605   -4.51311  -10.55901
       O    -2.58238   -4.86770   -9.78175
      H1    -3.41620   -4.39600   -9.69942
       H    -0.85260   -7.32206  -13.44300
       O    -0.33881   -6.57514  -12.98334
      H1    -0.13899   -7.01297  -12.14628
       H     1.83794   -7.89011  -11.45848
       O     2.24113   -8.75519  -11.70467
      H1     1.82710   -8.86393  -12.61027
       H    -9.81010   -8.81364  -13.17164
       O    -9.38862   -9.36771  -12.54196
      H1    -9.91750  -10.17392  -12.55666
       H    -0.30027   -3.47785  -17.23026
       O    -0.38586   -3.32098  -16.29276
      H1    -0.71364   -2.42831  -16.17343
       H    -3.25796   -9.69762  -11.88010
       O    -3.10599  -10.63143  -11.92404
      H1    -3.11050  -10.81103  -12.84315
       H    -1.71152   -1.25248  -17.48497
       O    -2.03936   -0.83630  -16.63628
      H1    -2.85949   -1.30552  -16.36069
       H    -9.55547   -3.97891  -14.64772
       O    -9.51261   -4.94204  -14.75239
      H1    -9.05424   -4.96747  -15.60404
       H    -2.72045   -6.97649  -14.40684
       O    -3.19459   -6.48638  -13.78697
      H1    -4.07340   -6.55612  -14.11065
       H    -2.39139  -14.28202  -12.53963
       O    -1.99903  -13.40095  -12.31298
      H1    -1.12641  -13.74605  -11.99173
       H    -8.55999  -12.99441  -15.97785
       O    -8.82141  -13.68714  -16.59328
      H1    -9.81150  -13.65866  -16.53220
       H     0.00920   -3.67776  -12.03912
       O    -0.85298   -4.09201  -12.04814
      H1    -0.50412   -4.98300  -12.29440
       H     1.44913   -8.38832  -16.87220
       O     0.97253   -8.16123  -16.03844
      H1     1.14372   -7.22519  -15.87581
       H    -5.70160  -12.41995  -10.74279
       O    -5.12736  -11.78369  -10.31228
      H1    -4.54013  -11.59008  -11.08452
       H   -10.04835  -11.06574  -15.15959
       O   -10.67431  -10.76376  -15.82269
      H1   -10.16992  -10.66431  -16.64127
       H    -2.91341   -4.93390  -15.31320
       O    -3.32607   -4.82456  -16.17645
      H1    -3.53532   -3.88947  -16.33771
       H     1.73029   -9.81373  -19.08842
       O     0.90123   -9.25708  -19.20751
      H1     1.11918   -8.57985  -19.92605
       H     1.90314   -6.17605  -18.58899
       O     2.82256   -6.56488  -18.51008
      H1     3.16145   -6.40887  -19.35618
       H    -1.76500   -9.74710  -17.05075
       O    -1.48839   -8.93892  -16.62360
      H1    -0.55875   -8.92004  -16.54317
       H    -0.91421   -5.45188  -19.21540
       O    -0.30225   -5.40142  -18.43449
      H1    -0.69603   -5.98490  -17.81745
       H    -5.24987  -14.76842  -16.32348
       O    -4.98765  -15.47992  -16.97541
      H1    -5.21010  -16.30342  -16.48244
       H    -8.56689  -13.15709  -18.35146
       O    -8.71702  -12.97752  -19.27706
      H1    -7.88706  -13.36549  -19.61526
       H    -8.97199   -7.82189  -17.67833
       O    -8.03472   -8.17514  -17.68816
      H1    -7.74728   -8.35109  -16.80794
       H    -9.60432   -3.40043  -16.86977
       O    -9.76643   -3.85718  -17.70880
      H1    -9.14394   -4.58387  -17.79476
       H    -5.52903  -10.37637  -16.55516
       O    -6.19600  -11.06396  -16.78839
      H1    -7.03003  -10.80199  -16.38191
       H    -8.54408  -13.43511  -11.15948
       O    -8.60105  -12.51755  -11.48913
      H1    -7.78072  -12.48998  -11.98483
       H    -8.20485   -1.60554  -19.85561
       O    -7.54687   -1.21131  -19.24156
      H1    -6.98210   -2.02443  -19.23357
       H     0.27910  -14.16365  -18.53302
       O     0.09189  -13.48227  -17.92122
      H1    -0.03414  -12.76647  -18.57237
       H     0.71536  -13.22064  -15.42542
       O     1.45987  -13.64048  -15.07780
      H1     2.21990  -13.21187  -15.57302
       H     1.39448   -9.58277  -14.69219
       O     1.79070  -10.21480  -14.11451
      H1     1.03470  -10.65378  -13.76282
       H    -2.58842   -4.16705  -18.07670
       O    -3.17957   -3.80026  -18.70049
      H1    -2.79804   -4.15365  -19.50455
       H    -3.50045   -7.27407  -12.21757
       O    -3.75576   -7.73575  -11.39932
      H1    -3.43798   -7.10978  -10.69654
       H    -3.75674   -2.95500  -12.98484
       O    -4.65468   -3.01798  -12.57068
      H1    -4.97137   -3.88288  -12.70236
       H    -1.14643  -11.32414  -11.82198
       O    -0.26594  -10.97432  -12.02747
      H1     0.19619  -10.95584  -11.16502
       H    -6.43417   -3.63521  -18.12867
       O    -5.83364   -3.00993  -18.51273
      H1    -5.02953   -3.46590  -18.75814
       H    -3.62453   -8.71796  -16.23013
       O    -4.58342   -8.70033  -16.44769
      H1    -4.67918   -8.15745  -17.23836
       H    -6.94559   -5.76435  -16.49515
       O    -7.65500   -5.56803  -17.05144
      H1    -7.77427   -6.48953  -17.28263
       H     0.84680   -4.54709  -15.32039
       O     1.41024   -5.31980  -14.99003
      H1     0.81284   -5.67343  -14.31745
       H   -11.42297   -8.98019  -15.83871
       O   -12.04928   -8.22845  -16.12717
      H1   -11.45832   -7.82244  -16.75523
       H    -4.78107   -5.60199  -15.45397
       O    -5.64229   -6.06472  -15.18813
      H1    -5.95675   -5.43825  -14.48434

