180
frame 140 | Written by MDAnalysis XYZWriter (release 2.4.3)
       H     3.67197   -9.43882  -13.93278
       O     4.06095   -9.21291  -14.75818
      H1     4.68291   -8.49894  -14.58417
       H    -4.26425  -15.60754  -19.60975
       O    -3.74834  -15.62455  -18.76638
      H1    -3.67139  -14.65437  -18.67594
       H     3.34202  -13.25709  -10.58680
       O     3.40113  -12.42983  -10.09655
      H1     3.33700  -11.71081  -10.72913
       H    -0.02489  -19.42948  -15.71696
       O    -0.68254  -18.91462  -16.19499
      H1    -1.10939  -19.67906  -16.59036
       H     8.74348  -15.81549  -15.45913
       O     9.07914  -14.96450  -15.81675
      H1     8.55370  -14.24195  -15.34419
       H     0.83586  -11.55617  -14.41162
       O     1.43302  -12.28670  -14.15058
      H1     2.03704  -12.35571  -14.92013
       H    -1.31363  -10.50829  -15.42921
       O    -1.77199  -10.78341  -14.65579
      H1    -2.68756  -10.95791  -14.93855
       H    -5.37157   -9.32004  -14.00451
       O    -5.70770   -8.56304  -13.52835
      H1    -6.66513   -8.51357  -13.74689
       H     1.96306  -15.17477  -11.18279
       O     2.59936  -15.19763  -10.41709
      H1     3.17224  -15.97721  -10.74412
       H    -5.50269  -16.73507  -13.28656
       O    -5.32938  -15.80029  -13.11999
      H1    -5.63939  -15.70295  -12.19604
       H     0.88898  -16.51744  -17.37931
       O     0.00545  -16.09860  -17.39271
      H1    -0.35671  -16.50132  -18.19703
       H     1.19421  -17.40854  -12.54497
       O     1.79322  -17.48996  -13.35480
      H1     2.06309  -16.61923  -13.53442
       H     7.93414   -9.90053  -19.66584
       O     7.56696   -9.03477  -19.65987
      H1     8.02695   -8.59600  -18.91596
       H     3.37244  -17.17695  -12.38884
       O     4.19911  -16.85812  -11.94581
      H1     4.34327  -16.16335  -12.62608
       H     4.35719  -10.18875  -11.43807
       O     3.50777   -9.77932  -11.18470
      H1     3.68451   -9.12038  -10.49025
       H     2.68968  -10.54198  -16.82838
       O     2.54487   -9.64018  -17.02499
      H1     2.99682   -9.23136  -16.24437
       H     4.36022   -7.91731  -18.31246
       O     4.23948   -7.01272  -17.89535
      H1     3.82148   -7.19261  -17.04985
       H    -2.55273  -12.02104  -17.41590
       O    -3.48741  -12.25285  -17.57002
      H1    -3.57235  -11.70711  -18.38462
       H    -0.32413   -7.30137  -18.55561
       O    -1.28565   -7.19419  -18.33342
      H1    -1.43155   -6.39294  -18.82481
       H    -6.67916  -15.27200  -16.99217
       O    -6.83446  -14.33955  -17.35906
      H1    -5.98837  -13.95836  -17.50451
       H     1.98159   -9.18783  -12.33185
       O     1.57326   -8.55420  -12.92974
      H1     2.11094   -7.78351  -12.84470
       H     6.54126  -19.35927  -19.51861
       O     5.95264  -18.58166  -19.38321
      H1     6.17536  -18.30128  -18.42361
       H    -0.17789  -12.01388  -17.64703
       O    -0.74775  -11.25460  -17.54894
      H1    -0.67250  -10.82580  -18.40839
       H    -0.47345  -10.39153  -11.37013
       O     0.09630  -11.12883  -11.60501
      H1     0.82217  -11.10197  -10.95257
       H    -7.15704  -14.25338  -15.33313
       O    -7.42511  -14.57512  -14.47231
      H1    -6.57434  -15.04285  -14.15526
       H    -1.40295  -16.02884  -14.94172
       O    -1.17349  -16.60919  -14.19288
      H1    -0.92624  -17.44918  -14.57262
       H     2.71734  -12.65464  -17.07420
       O     3.03800  -12.17722  -16.31737
      H1     4.00162  -12.29838  -16.32426
       H    -3.44989  -16.45245  -15.52680
       O    -4.23666  -16.20060  -16.00850
      H1    -3.92940  -16.18459  -16.95272
       H     2.54900  -17.78523  -17.86501
       O     2.43910  -17.47840  -16.95418
      H1     2.60006  -18.28171  -16.49583
       H    -7.35596   -9.16725  -17.77795
       O    -6.80786   -9.96033  -17.69279
      H1    -7.38700  -10.51752  -17.14032
       H    -4.34011  -12.04542  -14.66115
       O    -4.52602  -11.21354  -15.22096
      H1    -4.19993  -11.52071  -16.10121
       H     1.76567   -7.24506  -19.22693
       O     1.23727   -8.03688  -18.95333
      H1     1.90264   -8.43992  -18.36413
       H     5.96190   -9.38961  -19.18710
       O     5.08462   -9.65498  -18.75643
      H1     4.60171   -9.71111  -19.58228
       H     4.78361  -14.06482  -13.81352
       O     4.24359  -14.89094  -13.95751
      H1     4.30171  -15.08649  -14.88927
       H    -1.96481   -9.87655  -13.02284
       O    -2.06821   -9.12405  -12.41303
      H1    -2.71251   -9.48172  -11.74328
       H     5.59735  -17.92345  -16.37528
       O     6.30230  -18.66615  -16.43225
      H1     6.96666  -18.34438  -15.71781
       H     5.78660  -15.83820  -14.26238
       O     6.71843  -16.00805  -14.00788
      H1     6.61761  -16.10681  -13.04696
       H     7.09527  -13.05686  -14.18671
       O     8.05014  -12.88985  -14.34517
      H1     8.28905  -13.08830  -13.38048
       H     4.71870  -15.42591  -17.03962
       O     4.76492  -16.33770  -16.60215
      H1     3.87087  -16.59903  -16.90745
       H    -2.60904  -16.99715  -12.45851
       O    -3.31016  -16.94987  -11.75327
      H1    -3.93935  -16.43390  -12.28854
       H     0.38908   -7.94956  -11.79699
       O    -0.16927   -7.71899  -11.01923
      H1    -0.88700   -8.37372  -11.19044
       H     0.86003   -9.22325  -14.60266
       O     0.29402   -9.03431  -15.35974
      H1     0.63161   -9.56713  -16.12660
       H     5.25398  -11.50752  -14.17558
       O     5.26628  -12.17762  -13.47768
      H1     5.85004  -11.69927  -12.86724
       H    -2.91924  -13.75420  -14.03681
       O    -3.73903  -13.48206  -13.63345
      H1    -4.18831  -14.30714  -13.52726
       H    -6.71496  -17.72510  -16.91661
       O    -7.06202  -17.12259  -16.22098
      H1    -6.23427  -16.73288  -15.94258
       H     0.08618   -7.05768  -15.69509
       O    -0.45205   -6.30931  -15.83380
      H1    -0.66731   -6.37764  -16.79267
       H     0.59334  -18.91339  -10.58725
       O     0.07408  -18.74428  -11.34342
      H1     0.16620  -19.56261  -11.82638
       H     0.82370  -13.38093  -18.94175
       O     0.91266  -13.40618  -17.98078
      H1     0.76414  -14.33949  -17.87796
       H    -1.08685  -13.11221  -15.09479
       O    -1.41383  -14.02239  -15.29251
      H1    -0.73942  -14.34180  -15.98708
       H    -1.82043   -6.12040  -14.41266
       O    -1.72816   -5.90093  -13.46891
      H1    -1.06831   -6.53973  -13.21395
       H     7.93442  -14.69666  -17.44818
       O     7.56915  -14.30723  -18.25167
      H1     7.22965  -15.11524  -18.72872
       H    -3.91764   -8.77616  -17.44339
       O    -4.43044   -8.67388  -18.24474
      H1    -5.24391   -9.16116  -17.99752
       H    -6.15555  -18.97559  -18.31239
       O    -5.34924  -18.45505  -18.24464
      H1    -5.51667  -17.82673  -18.93137
       H     9.88893  -12.43042  -18.74878
       O     9.65912  -13.12127  -19.37485
      H1     8.91296  -13.56322  -18.89762
       H    -1.75692  -13.75312  -10.18679
       O    -1.98839  -12.98710  -10.68624
      H1    -1.13108  -12.60538  -10.79262
       H     6.57270  -11.00143  -16.78878
       O     5.88921  -11.15651  -16.09471
      H1     5.26526  -10.46756  -16.38768
       H    -4.75014  -12.62606  -11.81778
       O    -5.43481  -12.41543  -11.14755
      H1    -6.07213  -11.89034  -11.59924
       H     5.40630  -13.64338  -18.11183
       O     4.48075  -13.93897  -18.04675
      H1     4.32626  -14.33354  -18.94702
       H     0.94701  -13.89799  -12.93927
       O     0.86046  -14.82605  -12.72561
      H1    -0.04270  -14.97846  -13.03812
       H    -2.67391   -8.58376  -15.00682
       O    -3.04487   -8.05849  -15.78360
      H1    -2.22931   -7.80141  -16.24116

