180
frame 2 | Written by MDAnalysis XYZWriter (release 2.4.3)
       H    14.93371  -18.91714   -2.34220
       O    14.51587  -19.01276   -3.16084
      H1    14.54983  -19.98552   -3.29432
       H    13.50904  -18.56851    2.26258
       O    14.08917  -18.12147    1.61707
      H1    14.05155  -17.24436    2.01710
       H    11.48255  -12.31384   -3.82256
       O    10.67109  -12.72383   -4.14293
      H1    10.57442  -12.12647   -4.95272
       H    16.38412  -16.14068   -1.78646
       O    16.92139  -15.60160   -2.37726
      H1    17.77931  -15.89448   -1.96976
       H    11.36607  -14.54991   -3.00508
       O    11.05447  -15.26174   -2.42358
      H1    11.42032  -15.98351   -2.93432
       H     3.23469  -18.65428   -2.03015
       O     3.59466  -19.51987   -2.21786
      H1     3.37750  -19.91844   -1.30028
       H     7.46086  -17.39919  -10.77263
       O     8.37146  -17.70934  -10.79570
      H1     8.97501  -17.08754  -10.27016
       H     5.75037  -14.09187   -3.68605
       O     4.78836  -13.95436   -3.32411
      H1     4.48781  -13.37109   -4.05959
       H    17.53148  -16.46061  -11.45677
       O    17.08696  -16.17086  -10.68259
      H1    16.40791  -16.86249  -10.59675
       H    11.56978  -13.34763    1.81681
       O    12.52272  -13.04954    1.93224
      H1    12.34016  -12.33785    2.60093
       H    11.33098  -18.19292   -3.79315
       O    11.97374  -17.84655   -3.18268
      H1    12.70921  -18.46138   -3.25407
       H     5.70292  -17.39619   -9.48253
       O     5.60031  -17.58433  -10.38318
      H1     4.99750  -16.86351  -10.60413
       H    11.92065  -11.64173    0.81077
       O    12.23255  -10.82513    0.36880
      H1    11.47850  -10.59565   -0.13458
       H    17.25296  -15.78422   -7.01698
       O    18.11545  -16.15415   -6.73726
      H1    17.89366  -17.05185   -6.42923
       H    15.62052  -18.85070   -8.21225
       O    14.89993  -19.34680   -8.60975
      H1    14.16193  -19.12521   -8.03580
       H    13.67578   -8.61447   -4.51623
       O    13.92242   -9.04935   -3.68619
      H1    13.29252   -9.76881   -3.51172
       H     8.97570  -14.71418   -4.86965
       O     9.70593  -14.90789   -5.49776
      H1    10.30383  -14.21376   -5.19989
       H     8.31385  -14.83216   -8.12908
       O     9.30709  -14.76503   -8.01505
      H1     9.37246  -14.75708   -7.07406
       H     8.03551  -11.91856   -6.34661
       O     7.11514  -11.85861   -6.58079
      H1     7.10676  -11.37417   -7.41472
       H     9.99667  -16.71094    0.07861
       O     9.43258  -16.48631    0.84177
      H1     9.60278  -15.52207    0.97079
       H    16.36269  -15.58171    0.32245
       O    16.57845  -15.17568    1.18938
      H1    16.30273  -15.87150    1.81349
       H     7.60382  -15.48392   -3.01449
       O     7.46377  -14.83964   -3.72248
      H1     7.01315  -15.44925   -4.33839
       H    11.31376  -15.80749  -11.17841
       O    11.48743  -15.54333  -12.10388
      H1    12.41341  -15.30239  -12.06747
       H     8.85233  -18.08854    1.99419
       O     8.11047  -18.72967    2.00084
      H1     7.69174  -18.48851    1.14867
       H    16.07665  -13.65929   -2.62516
       O    15.59555  -12.82603   -2.75790
      H1    16.25886  -12.33483   -3.26824
       H    13.47248  -14.66649    2.66880
       O    13.59225  -15.59619    2.87583
      H1    12.71194  -15.87803    2.63502
       H     5.75529  -17.32336   -1.66167
       O     5.31341  -16.94906   -2.44903
      H1     4.67021  -16.45912   -1.95881
       H    10.55057  -11.59852   -7.11440
       O    10.01524  -11.25746   -6.42163
      H1    10.14920  -10.28510   -6.40728
       H    13.62390  -11.96790   -2.67796
       O    12.69790  -11.57780   -2.68497
      H1    12.68140  -11.37378   -1.76347
       H     8.70489  -18.64966   -3.34853
       O     8.77630  -18.93412   -2.41516
      H1     9.05291  -19.84126   -2.55517
       H    17.95875  -18.40606   -0.07239
       O    17.53505  -19.01229    0.58888
      H1    17.67506  -18.53581    1.42099
       H     6.78508  -13.59946   -7.37474
       O     6.55746  -14.56962   -7.71743
      H1     6.37917  -14.98163   -6.83315
       H     4.80081  -15.87388    0.91055
       O     5.01251  -16.03023    1.83872
      H1     4.23446  -16.43678    2.22382
       H    11.15902  -16.95085   -9.05787
       O    10.77883  -16.34286   -9.67008
      H1    10.20813  -15.81991   -9.01731
       H    17.19689  -18.22910   -5.30428
       O    17.69691  -18.95689   -5.80832
      H1    16.96218  -19.54477   -5.99237
       H    14.72619  -17.48963   -0.48358
       O    14.81567  -16.82977   -1.18653
      H1    14.31835  -16.08215   -0.75358
       H     3.67326  -15.42624   -4.01291
       O     3.13500  -16.11634   -4.45923
      H1     2.66660  -15.64951   -5.15525
       H    15.78176  -12.02417   -1.24982
       O    16.00149  -11.33533   -0.58432
      H1    16.20382  -11.81689    0.18042
       H     9.38993  -13.91803   -1.91064
       O     8.89765  -13.35626   -1.35215
      H1     7.97370  -13.46888   -1.67705
       H    10.64765  -15.37685    3.93057
       O    10.51413  -14.53484    4.47845
      H1     9.82425  -14.05071    3.96568
       H     5.94601  -17.07838    3.60948
       O     6.71359  -17.36123    4.08994
      H1     7.16015  -17.88816    3.43739
       H    10.48162  -17.33536   -6.01782
       O    10.17336  -17.92379   -5.33400
      H1     9.65404  -18.65573   -5.69928
       H    14.41298  -15.49197   -4.96482
       O    14.22805  -14.64167   -5.45068
      H1    14.23655  -14.05045   -4.66958
       H    10.72043  -16.94202    2.23192
       O    11.18338  -16.54798    2.96006
      H1    11.59571  -17.33614    3.34886
       H    12.12858  -13.14669   -8.70787
       O    11.23772  -12.86177   -8.90979
      H1    10.63307  -13.54002   -8.57744
       H    11.88014  -19.68267   -7.53324
       O    11.84475  -18.87655   -8.08403
      H1    12.02623  -19.19903   -8.94942
       H     9.13017  -10.00340   -1.35818
       O     9.91707  -10.41055   -1.71191
      H1     9.71870  -11.33688   -1.60875
       H    15.70642  -14.42962   -6.64580
       O    16.27270  -14.19034   -7.44705
      H1    15.65660  -14.26627   -8.17036
       H     9.34485  -13.23190    2.01992
       O     9.90716  -13.68495    1.32428
      H1     9.39701  -13.49376    0.50022
       H    13.60512  -12.68876   -8.20138
       O    13.82304  -13.65108   -8.10885
      H1    13.73042  -13.84104   -7.15003
       H     5.88153  -11.00882   -4.26331
       O     6.79088  -10.72802   -4.17972
      H1     7.12068  -11.08337   -5.02104
       H    13.27513  -13.98031    0.09857
       O    13.32198  -14.88105   -0.23814
      H1    12.60369  -14.77050   -0.91208
       H     6.24873  -17.20569   -6.26289
       O     6.03849  -16.46325   -5.68682
      H1     5.16509  -16.73960   -5.35273
       H    19.27929  -16.52904   -0.54113
       O    18.90994  -17.19758   -1.13958
      H1    19.68559  -17.49388   -1.58865
       H    16.41678  -16.39660   -3.86708
       O    15.87505  -16.84190   -4.49435
      H1    15.42572  -17.49883   -3.99351
       H    10.33587  -13.45328  -10.32243
       O     9.83501  -13.49572  -11.14770
      H1    10.42616  -14.12146  -11.60460
       H     4.78257  -19.37128   -3.67661
       O     5.16873  -18.99289   -4.51592
      H1     5.43194  -18.12500   -4.07419
       H    13.99024  -18.38193  -11.60555
       O    14.94139  -18.54585  -11.26995
      H1    14.72008  -18.89625  -10.40952
       H     7.35683  -18.52026   -1.14872
       O     6.79606  -18.24862   -0.40237
      H1     6.24513  -19.05146   -0.23283
       H    10.07862  -18.66299   -1.24621
       O    10.90472  -18.43923   -0.76461
      H1    11.41940  -18.03750   -1.49840

