180
frame 90 | Written by MDAnalysis XYZWriter (release 2.4.3)
       H    -6.98794    8.58284   -0.32123
       O    -6.80787    7.68653   -0.65046
      H1    -6.15195    7.33961    0.03465
       H   -13.92655   10.20954   -5.93589
       O   -13.83734   10.11770   -4.96716
      H1   -12.92069   10.46359   -4.86737
       H   -13.52274   12.98365   -2.79392
       O   -13.65554   13.74671   -3.36422
      H1   -14.17989   13.29166   -4.09140
       H    -5.06453    5.44790   -5.39975
       O    -5.94900    5.15538   -5.07074
      H1    -6.26115    4.52146   -5.67961
       H    -6.61580    8.98911   -3.59204
       O    -7.54739    8.91039   -3.95665
      H1    -7.36215    8.14926   -4.53688
       H    -4.02439    7.40485   -4.87382
       O    -3.70011    6.63398   -5.38046
      H1    -3.56877    7.10440   -6.25028
       H   -15.60258    7.68135   -4.24854
       O   -15.49536    7.79154   -3.25963
      H1   -14.56721    7.86306   -3.04865
       H    -4.79423   15.48414   -2.05130
       O    -4.60403   14.65064   -1.56309
      H1    -3.64508   14.71152   -1.44402
       H    -7.01384   10.95323   -0.38597
       O    -7.59703   10.29351    0.04845
      H1    -7.07924   10.24737    0.88767
       H   -11.41767    3.99270   -4.32114
       O   -12.24363    3.75561   -4.80884
      H1   -12.64182    4.60699   -4.93157
       H    -4.74299    7.88081    3.71024
       O    -4.53828    8.38208    2.88607
      H1    -3.70972    8.92163    3.15096
       H   -12.04090    5.43434   -0.43242
       O   -11.97962    5.61304   -1.37908
      H1   -12.78300    5.13771   -1.62066
       H    -6.30209    5.97374    5.01839
       O    -5.80993    6.82557    4.95082
      H1    -6.37228    7.58596    5.00709
       H    -4.39590    9.05931   -3.01837
       O    -4.84323    8.79846   -3.84570
      H1    -4.47057    9.40486   -4.46301
       H    -4.79411    7.16246    1.69830
       O    -5.02872    6.52515    1.01575
      H1    -5.64284    5.93334    1.49776
       H    -5.21583    6.85535   -1.79806
       O    -4.38943    6.33709   -1.91741
      H1    -3.97222    6.22690   -1.03669
       H    -2.66300    9.31046   -0.88545
       O    -1.71985    9.18824   -1.00442
      H1    -1.79440    8.23188   -1.15253
       H    -4.67090   10.88229   -1.07586
       O    -4.18730   10.38677   -0.44290
      H1    -3.92165   11.16524    0.11401
       H   -11.32335    7.39502    6.06374
       O   -12.23638    7.59350    6.38571
      H1   -12.27730    8.55033    6.24879
       H    -3.38124   13.45612    0.91265
       O    -4.03052   12.73280    1.14125
      H1    -4.21180   12.95206    2.07949
       H    -9.39497   12.20565   -3.59586
       O    -8.61533   12.74178   -3.40484
      H1    -8.89938   13.63097   -3.57962
       H    -7.56663    4.32657   -2.09620
       O    -6.92530    3.67750   -1.84538
      H1    -6.00469    4.05195   -1.98070
       H   -11.92000    9.91906    4.05570
       O   -11.59873   10.08194    4.91668
      H1   -12.43933   10.35663    5.32823
       H    -9.39602    6.24759    6.36552
       O    -9.59634    6.83716    5.59557
      H1    -8.68448    7.24643    5.59147
       H    -8.54305    6.40166    0.52240
       O    -9.32267    5.84129    0.38933
      H1    -9.98893    6.41246    0.86665
       H   -11.07483   12.02273   -5.14092
       O   -11.05550   11.35887   -4.42966
      H1   -10.79929   10.53732   -4.85031
       H   -11.87310   14.81745   -3.08660
       O   -11.24539   15.42526   -2.67507
      H1   -10.87603   14.96580   -1.87573
       H   -15.06065    8.64780    1.61992
       O   -14.94782    8.51786    0.63451
      H1   -15.21419    7.55570    0.57565
       H    -7.24238    3.04750   -0.05136
       O    -6.79556    2.60271    0.69901
      H1    -7.45211    2.01163    1.02092
       H   -10.60053   14.13074    4.14747
       O   -10.25264   14.99714    4.37009
      H1    -9.48375   14.73375    4.96459
       H   -15.07475    9.77984   -0.54815
       O   -15.63009   10.42142   -1.09689
      H1   -15.87928    9.72860   -1.76960
       H   -12.07155   14.02595    1.50456
       O   -11.27562   14.38268    1.85919
      H1   -10.91456   13.62084    2.33007
       H   -10.72992   11.48589    4.06719
       O   -10.27989   12.21448    3.64063
      H1    -9.34996   12.08611    3.73794
       H    -4.70511   11.38652   -4.81127
       O    -3.77085   11.09712   -4.68203
      H1    -3.56547   11.33450   -3.76741
       H   -13.93935   12.82654    2.92560
       O   -13.96338   12.53582    3.88840
      H1   -14.89665   12.33985    3.87796
       H   -10.44499    4.18999    0.98851
       O   -10.64548    3.84631    1.87043
      H1   -11.27709    3.07483    1.83406
       H    -7.93203    5.86615   -4.26136
       O    -8.54172    5.97153   -3.49356
      H1    -8.13267    6.68094   -2.96502
       H    -9.45784    4.44547    3.30519
       O    -8.96140    4.57255    4.11185
      H1    -9.26416    5.39905    4.50920
       H    -8.93806   14.23481   -0.74331
       O    -9.87781   14.24765   -0.58665
      H1    -9.99561   14.30660    0.38742
       H    -6.85910   12.12672   -4.64545
       O    -6.43020   11.42324   -5.15867
      H1    -6.73733   10.63190   -4.62256
       H    -9.52995    8.98127   -4.22008
       O   -10.31075    8.58674   -4.68688
      H1    -9.90353    7.78967   -5.07754
       H   -12.29858    7.34605    2.00379
       O   -11.94397    6.57950    1.52776
      H1   -11.61832    5.90454    2.19529
       H    -7.05794   14.42424    0.91885
       O    -7.00506   13.99926    0.10503
      H1    -6.46023   14.55656   -0.48637
       H    -6.99005   11.76465    4.83125
       O    -7.65065   12.02483    4.20777
      H1    -7.27776   11.79272    3.36864
       H    -7.03792    6.05731   -6.16992
       O    -7.49032    6.84267   -6.48953
      H1    -8.26477    6.41625   -6.90841
       H    -9.75939    4.74078   -3.12043
       O   -10.38415    4.05508   -2.82059
      H1   -10.77131    4.61125   -2.09490
       H    -9.77472    8.95401    2.81042
       O    -8.87940    9.09759    2.51338
      H1    -8.97271    9.05998    1.56321
       H   -13.56819   12.94825    0.38158
       O   -13.79996   13.61282    1.08897
      H1   -14.25099   14.33585    0.56906
       H   -12.47137    7.38483   -1.94103
       O   -12.82474    8.17255   -2.36119
      H1   -12.11220    8.29973   -3.05730
       H    -7.54680    9.62038    5.30840
       O    -7.66289    8.73108    4.89454
      H1    -7.89503    8.93756    3.96880
       H    -9.08583    9.34429   -0.34320
       O    -9.83137    8.80555    0.00492
      H1    -9.60160    7.99663   -0.41892
       H   -14.22840   11.92947   -1.35188
       O   -13.33724   12.17169   -1.19718
      H1   -12.90621   11.31093   -0.93865
       H    -6.99844    4.16057    1.69621
       O    -6.86996    4.95317    2.20692
      H1    -7.56614    4.80918    2.87257
       H    -5.34999   11.44970    1.68031
       O    -5.90666   10.69772    1.96933
      H1    -5.32075    9.99266    2.31542
       H   -14.06362    4.51552    0.56236
       O   -13.34520    3.85112    0.32668
      H1   -13.95932    3.07662    0.13354
       H   -11.40468    9.38324   -0.09228
       O   -12.33765    9.68907   -0.10814
      H1   -12.62479    9.13908   -0.82473
       H    -2.65042   12.94486   -2.93090
       O    -3.03195   12.48804   -2.17276
      H1    -3.77426   13.04784   -1.87249
       H   -12.42307    9.50037    1.88150
       O   -12.58485    8.90042    2.66602
      H1   -13.44953    9.05187    2.95428
       H    -8.69714   15.47052    2.69360
       O    -7.81411   15.24700    2.46793
      H1    -7.53045   16.14370    2.29422
       H    -6.36670   12.65549   -0.99259
       O    -6.51781   11.97192   -1.67576
      H1    -7.41056   12.15785   -2.04126

