180
frame 6 | Written by MDAnalysis XYZWriter (release 2.4.3)
       H   -12.22751    7.18348   14.28428
       O   -11.33869    7.09404   14.68593
      H1   -11.57579    7.01616   15.61538
       H   -15.75253   19.32063   13.63426
       O   -16.56241   18.85828   13.40275
      H1   -16.29845   17.95952   13.56948
       H   -15.02110    3.51078   18.61898
       O   -14.86152    2.57474   18.54337
      H1   -15.21651    2.22097   19.35527
       H   -13.40313   10.61733   19.85178
       O   -14.06163   10.75430   19.10996
      H1   -14.86218   10.30338   19.44480
       H    -9.10003    7.55077   14.39312
       O    -8.71015    7.72938   13.50969
      H1    -7.77431    7.86713   13.80534
       H   -13.85481    6.80738   11.20583
       O   -14.63542    6.32115   11.50968
      H1   -15.34021    6.92751   11.22001
       H    -4.98762   16.33453   19.32826
       O    -5.88933   16.76277   19.34300
      H1    -5.78114   17.75578   19.38650
       H    -8.73986   15.65568   17.83641
       O    -9.57712   16.11780   18.06844
      H1   -10.14069   15.92167   17.30948
       H    -8.67895   15.48311   14.21088
       O    -9.29267   16.19069   14.48175
      H1    -9.51138   16.57566   13.61941
       H   -16.58311   15.80014   19.45249
       O   -17.14913   16.60656   19.55440
      H1   -18.05721   16.35292   19.25283
       H   -14.36215   15.43391   16.30847
       O   -13.73374   14.88328   15.85532
      H1   -13.79636   14.14344   16.53142
       H   -13.21887    9.38808   13.61913
       O   -12.67233   10.22428   13.52439
      H1   -11.77516    9.99322   13.83226
       H   -15.92792   15.25340   14.35723
       O   -15.98933   16.22314   14.16724
      H1   -15.96241   16.53887   15.08823
       H   -11.48213    4.14407   15.24895
       O   -11.11509    4.26592   14.38861
      H1   -10.99371    5.28946   14.42294
       H   -13.38044   16.00663   14.43769
       O   -13.13523   16.68678   13.80240
      H1   -12.84517   17.42694   14.31864
       H    -9.81950    4.18276   17.50146
       O   -10.72744    3.89918   17.30797
      H1   -10.80476    3.17419   17.97090
       H   -14.68601    8.27355   14.04560
       O   -13.91580    7.73648   13.71043
      H1   -14.30908    7.31879   12.85163
       H   -14.86267   17.83264   16.90261
       O   -15.36348   16.99952   16.94091
      H1   -15.73685   17.03122   17.83762
       H   -14.15785    4.18323   16.41352
       O   -14.43651    5.13465   16.39111
      H1   -13.80488    5.46593   17.12647
       H   -18.86410    5.37970   17.86083
       O   -18.13162    5.68137   17.30932
      H1   -17.92722    6.54133   17.68880
       H   -12.69475   17.80316   19.08791
       O   -12.13487   18.24546   18.36801
      H1   -11.58971   17.54043   18.04773
       H   -12.89999   15.53985   10.13239
       O   -11.95460   15.32714   10.09253
      H1   -11.96772   14.35108   10.29329
       H    -8.81613   12.22519   12.44305
       O    -9.60343   12.77030   12.75842
      H1    -9.62255   12.38268   13.62085
       H    -6.34944   10.13076   15.82714
       O    -6.38754    9.44375   16.50692
      H1    -6.40942    8.73009   15.84550
       H   -16.20977   10.04268   14.09542
       O   -16.08209    9.20543   14.65019
      H1   -16.69855    8.67460   14.13941
       H   -13.08477    9.05996   18.72183
       O   -12.28540    8.49939   18.49926
      H1   -12.58010    7.59895   18.71515
       H   -10.05659    9.81642   15.18468
       O    -9.94531   10.16502   14.27537
      H1    -9.61951    9.38490   13.75937
       H    -7.90355   10.34321   19.22425
       O    -7.22898    9.59845   19.19774
      H1    -7.01981    9.61232   18.25122
       H    -8.89845   18.97320   18.36470
       O    -8.80340   18.97881   17.38417
      H1    -8.85959   18.06095   17.11531
       H   -16.42228   13.55082   18.49518
       O   -15.83502   14.12814   18.97694
      H1   -15.79006   13.61420   19.78819
       H    -6.71298   15.93776   18.03075
       O    -7.00190   15.40868   17.29563
      H1    -6.68914   15.85248   16.50691
       H    -7.59135   14.80739   13.11270
       O    -7.62616   14.14103   13.79790
      H1    -8.44802   13.57843   13.51767
       H   -18.90733    9.91032    9.50040
       O   -18.55378    9.82348   10.40480
      H1   -17.91422   10.60906   10.37622
       H   -11.01045   16.28301   11.44222
       O   -10.75646   17.02810   12.02181
      H1   -11.46505   17.02210   12.70365
       H    -7.73458   11.31837   10.99663
       O    -7.40837   11.61602   11.84275
      H1    -7.11133   12.52953   11.70369
       H   -13.44855   12.34019   18.05665
       O   -13.10671   13.26719   17.96332
      H1   -13.50826   13.65933   18.74678
       H   -12.09523   15.71787   16.04276
       O   -11.37080   16.38046   16.19809
      H1   -10.80913   16.26634   15.41294
       H   -11.17696   12.43801   11.74616
       O   -11.63511   12.46916   10.86770
      H1   -11.80608   11.55058   10.70747
       H   -19.09676    8.29304   13.89487
       O   -18.62626    7.59792   14.45384
      H1   -18.94724    6.77366   14.05659
       H    -5.88344   12.46758   15.18199
       O    -5.57142   11.55806   14.95893
      H1    -5.72243   11.53234   13.97838
       H   -14.42092   15.06679   11.31680
       O   -14.27956   16.06468   11.39027
      H1   -14.18224   16.22841   12.33216
       H   -14.93069    5.63769   13.07019
       O   -15.41100    5.10751   13.73871
      H1   -15.08679    5.47445   14.55272
       H   -16.80452   11.63156   12.55017
       O   -16.55816   11.47962   13.48738
      H1   -17.42618   11.77541   13.94084
       H    -5.70917   13.92133   17.29478
       O    -5.05608   13.46797   16.74003
      H1    -4.51072   12.94891   17.31814
       H   -12.67689    5.54368   19.19683
       O   -12.44287    5.84803   18.29607
      H1   -11.65038    5.34847   18.05462
       H    -6.60899   18.77375   14.68542
       O    -7.26398   18.46015   14.04945
      H1    -7.82892   17.91883   14.61369
       H   -17.48017   12.81248   10.77837
       O   -16.98354   11.98146   10.64785
      H1   -16.09758   12.32615   10.76615
       H    -9.64307    9.62813   17.42047
       O   -10.18946    9.17318   16.78770
      H1   -11.07780    9.11494   17.14076
       H   -19.55113   12.46659   13.81049
       O   -18.73495   12.85884   14.21184
      H1   -18.73972   13.82525   13.84103
       H   -18.72929   15.74986   12.40803
       O   -18.75684   15.78285   13.39591
      H1   -17.84878   15.87676   13.72538
       H   -17.56294   11.24051   17.96942
       O   -17.35519   12.16007   17.64573
      H1   -18.11695   12.47886   17.11472
       H   -14.60478   13.51303   14.67984
       O   -15.16048   13.60150   13.93521
      H1   -15.46066   12.65742   13.97436
       H   -11.34391    8.61666   11.37247
       O   -11.40401    9.58344   11.19763
      H1   -11.70921    9.95449   12.02395
       H   -11.00914   19.43812   15.16207
       O   -11.77555   18.91348   15.16476
      H1   -11.49483   18.27109   15.81114
       H   -16.47206    4.53574   20.00474
       O   -16.00821    5.06982   19.36809
      H1   -16.77225    5.12044   18.76477
       H    -8.51515    6.75738   17.88700
       O    -9.45937    6.78063   17.84325
      H1    -9.66321    7.60088   17.42470
       H   -12.98219    9.24723   10.41788
       O   -13.78535    8.93543    9.90121
      H1   -13.40725    8.82466    9.04403
       H   -10.50041   13.47274   19.51774
       O   -10.71904   12.69440   19.04327
      H1   -11.56031   13.02186   18.57616
       H   -13.31296   12.86926   11.30081
       O   -14.23665   13.16744   11.39240
      H1   -14.23357   13.21370   12.36256
       H   -16.69499    9.08438   17.58151
       O   -17.54853    9.34639   17.96590
      H1   -17.30820    9.05945   18.87023

