180
frame 61 | Written by MDAnalysis XYZWriter (release 2.4.3)
       H    13.23220   -3.25393    2.26795
       O    14.11957   -2.88448    2.10527
      H1    14.45322   -2.68764    2.99699
       H    18.70093   -1.19509   -2.37030
       O    18.76768   -2.01739   -1.83744
      H1    18.86893   -1.76655   -0.88505
       H    16.45941   -3.64719   -0.02650
       O    16.72141   -3.79641    0.85694
      H1    15.95161   -3.53798    1.36333
       H    14.50669  -10.56320   -1.73143
       O    13.79302  -10.75335   -1.06655
      H1    13.02221  -10.29608   -1.42314
       H    17.10296   -6.11019   -3.27507
       O    16.70977   -6.87247   -2.81874
      H1    16.59518   -6.53658   -1.92369
       H    17.48475   -0.79235   -4.20884
       O    16.86544   -1.17444   -4.80570
      H1    17.04277   -2.12574   -4.70118
       H    13.93108   -2.20861   -5.07042
       O    13.22747   -1.58383   -5.07330
      H1    12.90448   -1.67769   -4.14688
       H    14.26925    2.95922   -2.29953
       O    14.33830    2.03878   -1.95857
      H1    14.14406    2.10889   -1.06140
       H    14.68746   -4.34273   -5.79168
       O    14.27147   -4.41883   -4.91092
      H1    14.59604   -5.28023   -4.73473
       H    11.69658   -1.56691   -2.14882
       O    11.95280   -2.33481   -2.72438
      H1    12.73632   -2.61818   -2.27299
       H    11.61670   -4.63901   -2.66326
       O    11.62163   -5.54194   -2.28322
      H1    10.74100   -5.65167   -1.88169
       H    17.49670   -0.34933    3.98926
       O    17.31922   -0.41557    4.90446
      H1    18.13696   -0.83599    5.22748
       H    18.45856   -5.91977   -8.26841
       O    18.03962   -5.48430   -7.49357
      H1    18.58670   -4.65995   -7.52549
       H    18.62587   -4.53014    3.33163
       O    18.19584   -4.65166    4.19336
      H1    17.37185   -5.10442    3.76520
       H    18.27719   -4.19983    1.13137
       O    19.08301   -4.67018    1.44428
      H1    19.78762   -4.25259    0.91355
       H    17.42279   -9.94319   -6.02475
       O    17.14959  -10.14465   -5.15341
      H1    16.43215   -9.46223   -5.01952
       H    18.18724   -8.06750   -2.19338
       O    19.06130   -8.36634   -1.82143
      H1    19.19237   -9.09698   -2.44958
       H    16.48117   -0.46179   -6.30565
       O    16.31125    0.14407   -7.07656
      H1    15.34603    0.22096   -6.88968
       H    16.70253   -9.22143   -0.48190
       O    17.13102   -8.97782    0.36752
      H1    17.93021   -8.51836   -0.05721
       H    18.11068   -3.84234   -2.77767
       O    17.63176   -4.25708   -3.46649
      H1    18.40769   -4.63319   -3.99570
       H    15.87326   -1.82838    8.40984
       O    16.27560   -2.66373    8.67984
      H1    16.78828   -2.92141    7.87684
       H    17.18776  -10.02902    7.74581
       O    16.39073   -9.97479    7.16002
      H1    16.40307   -9.09002    6.71345
       H    15.88602   -5.68690    9.25469
       O    15.73059   -5.38560    8.39037
      H1    15.78020   -4.41003    8.47744
       H    17.12217   -4.68526    7.26323
       O    17.71949   -3.99232    6.90841
      H1    17.79999   -4.19928    5.93175
       H    13.51518   -7.19737    6.66488
       O    14.44242   -7.31468    6.48244
      H1    14.79904   -6.51882    6.92898
       H    16.14195   -6.56152   -6.80851
       O    15.32234   -6.74938   -6.38130
      H1    14.73468   -6.70021   -7.12954
       H    18.42571  -11.21446   -3.27318
       O    19.33053  -10.98947   -3.13130
      H1    19.64520  -10.59415   -3.95976
       H    15.95731    2.32334   -2.50906
       O    16.62148    2.58245   -3.14468
      H1    16.93102    3.44251   -2.84432
       H    19.21827   -6.54985    1.16468
       O    19.32495   -7.51027    1.24982
      H1    19.81398   -7.70475    2.06855
       H    17.29673   -9.55568    3.83699
       O    18.22312   -9.49346    4.13249
      H1    18.34202   -8.87920    4.89334
       H    18.04666    3.21913    5.55516
       O    18.84903    3.81650    5.63348
      H1    18.73549    4.30326    6.43677
       H    20.17774   -0.77984    0.91121
       O    19.39163   -1.37119    0.81298
      H1    18.72051   -0.87823    1.31381
       H    12.03536   -0.35805    2.54103
       O    11.50589    0.12394    3.21287
      H1    10.81175   -0.50737    3.50771
       H    19.33845   -0.86529    9.13869
       O    19.56370   -0.77031   10.10222
      H1    18.77503   -0.31560   10.50567
       H    17.05482  -11.53437    5.83135
       O    17.50645  -12.11088    5.22367
      H1    18.09803  -11.47290    4.74473
       H    17.14416    1.15497    1.82091
       O    17.87322    0.67139    2.23698
      H1    18.52662    1.38450    2.39088
       H    14.78721   -4.29327   -2.87771
       O    14.87297   -3.97208   -1.97428
      H1    14.44549   -4.72778   -1.51755
       H    19.61337   -1.70229    6.62556
       O    19.03931   -1.03898    7.07278
      H1    19.46722   -0.15812    7.08489
       H    12.56816   -3.21017    5.05236
       O    12.97662   -2.99483    5.92176
      H1    12.53954   -3.65762    6.49605
       H    16.67631   -2.99284   -7.28383
       O    15.76127   -3.19415   -7.13888
      H1    15.18071   -2.73504   -7.76211
       H    15.93988   -1.47868    4.69953
       O    15.06903   -1.81132    4.41812
      H1    14.96955   -2.46680    5.12071
       H    19.03941   -3.23228    8.92121
       O    19.39056   -3.77808    9.68606
      H1    19.54954   -3.05020   10.33282
       H    16.21868    0.92226    6.92875
       O    15.76941    1.40657    7.65714
      H1    16.48613    1.84003    8.20740
       H    15.95774   -9.15187    1.84585
       O    15.66805   -9.19944    2.75032
      H1    15.22043  -10.06837    2.81699
       H    19.05180  -13.01932    1.74782
       O    18.61475  -13.00055    0.83471
      H1    18.91952  -12.17324    0.41311
       H    18.09612   -6.89170    5.29185
       O    17.79076   -7.28225    6.09565
      H1    18.40495   -6.88724    6.78823
       H    11.79153   -4.96325    3.23550
       O    11.86558   -4.09737    3.64326
      H1    10.95600   -3.83721    3.30282
       H    18.55707   -5.86848   -6.00161
       O    18.98414   -6.04433   -5.08681
      H1    19.87052   -5.66046   -5.20424
       H    15.74331    2.23851    4.78678
       O    16.38647    2.85988    5.08589
      H1    16.18205    3.63730    4.54864
       H    14.84126    1.13047    2.66240
       O    15.06152    1.26535    1.76058
      H1    14.64171    0.52558    1.37702
       H    14.02402   -6.29435   -0.22559
       O    13.35878   -5.61074   -0.30580
      H1    12.75243   -5.90338   -1.04873
       H    14.15173   -9.27982   -5.42360
       O    14.73156   -8.86144   -4.75584
      H1    14.52286   -7.92056   -5.02521
       H    19.31023  -10.89772   -0.93366
       O    19.72879  -10.58962   -0.09113
      H1    18.99755  -10.12788    0.29959
       H    16.56118  -10.30976   -3.04956
       O    16.39948   -9.91553   -2.18411
      H1    16.23279   -9.01460   -2.40840
       H    15.70053   -7.40733    2.95080
       O    15.89066   -6.56492    3.47763
      H1    15.35080   -6.84222    4.25247
       H    16.60210   -7.21488    0.44528
       O    16.39328   -6.43218   -0.14130
      H1    16.52112   -5.75537    0.58902
       H    10.99390   -6.32028    1.35235
       O    11.60710   -6.56012    2.08688
      H1    11.57722   -7.50110    2.08710
       H    13.37431   -1.60581    0.95377
       O    13.04399   -0.71983    0.69692
      H1    12.24793   -0.92118    0.14318
       H    17.87116    1.28135   -3.23160
       O    18.71975    0.77136   -3.42895
      H1    19.28072    1.43169   -4.00223
       H    14.21695   -0.17411    4.23839
       O    14.26927    0.75624    4.34180
      H1    13.35087    1.01247    4.17081

