180
frame 3 | Written by MDAnalysis XYZWriter (release 2.4.3)
       H   -19.10821  -16.04852    7.67195
       O   -19.78899  -15.36100    7.76098
      H1   -19.34612  -14.54982    7.41923
       H   -17.38954  -17.32951    8.03079
       O   -18.01126  -17.28911    7.28542
      H1   -18.36857  -18.20741    7.35808
       H   -17.71141   -0.99104    5.30020
       O   -17.46537   -1.72340    5.80989
      H1   -17.90780   -1.54888    6.64119
       H   -16.77919   -6.56940    0.76367
       O   -16.29836   -6.11447    1.44228
      H1   -15.80694   -6.88328    1.84198
       H   -10.39777  -10.43651   11.50074
       O   -10.20061  -10.72110   10.62969
      H1   -10.91950  -11.14799   10.21712
       H   -14.19332   -9.56478   10.72682
       O   -13.24190   -9.50700   10.54955
      H1   -13.04562   -8.55961   10.48640
       H   -12.07749  -14.37353    6.56889
       O   -12.35521  -15.20105    7.03208
      H1   -13.25762  -14.96720    7.31587
       H   -13.10131   -6.95547    4.53289
       O   -13.27796   -6.13763    3.98229
      H1   -14.24367   -6.07367    4.14726
       H   -18.54006   -3.14795    5.08686
       O   -18.89206   -4.00772    4.81542
      H1   -19.47059   -3.82777    4.05742
       H   -18.22006  -13.48649   -1.30304
       O   -17.50898  -13.39286   -0.61759
      H1   -18.11009  -13.50883    0.13699
       H   -12.21152   -6.75553    7.54689
       O   -11.26933   -6.93888    7.53428
      H1   -10.90536   -6.32382    6.85493
       H   -17.47806  -13.20172    6.81755
       O   -18.30354  -12.96049    7.28051
      H1   -18.20215  -12.03461    7.29606
       H    -9.24218   -7.85909    5.97637
       O    -9.75841   -7.86075    5.12822
      H1   -10.68082   -8.03439    5.45047
       H   -19.31661   -7.35095    7.35579
       O   -18.38864   -7.45389    7.55638
      H1   -17.99212   -7.45654    6.67812
       H   -13.05553  -11.36035   10.83604
       O   -12.64727  -12.07074   11.32633
      H1   -13.09770  -12.88688   11.09125
       H   -19.32428   -4.70592    6.64513
       O   -19.22556   -4.65068    7.58836
      H1   -19.08332   -3.71351    7.73937
       H   -19.22169   -5.21482    1.51252
       O   -19.79667   -5.73556    1.00660
      H1   -19.76762   -6.51739    1.57269
       H   -17.39030   -9.33433    5.01079
       O   -17.56904   -8.42762    5.24876
      H1   -18.41728   -8.22846    4.81941
       H   -19.53227   -5.90068   11.86027
       O   -19.10793   -5.56221   12.66546
      H1   -18.24638   -6.03489   12.61820
       H   -18.10924  -10.31106    8.28155
       O   -17.59358  -10.27951    7.40661
      H1   -17.94178   -9.39574    7.09137
       H   -12.79994   -5.65159   10.39511
       O   -13.19483   -6.52523   10.51190
      H1   -13.74309   -6.71664    9.74547
       H   -15.58745   -8.60818    2.97550
       O   -15.07700   -8.66477    2.14000
      H1   -15.22828   -9.65749    2.06338
       H   -15.70932  -14.35505    8.97821
       O   -15.10995  -15.01392    8.56900
      H1   -15.35694  -15.83333    8.91266
       H   -19.49928  -11.03011   13.23111
       O   -19.63673  -11.98448   13.31437
      H1   -18.67581  -12.25143   13.35886
       H   -16.60521  -10.63867    9.98377
       O   -16.04329  -10.40504   10.72522
      H1   -16.29783  -11.07476   11.40072
       H   -15.60990   -9.98809    7.41228
       O   -14.73496   -9.65998    7.62650
      H1   -14.68467   -9.72164    8.53853
       H   -16.67691   -5.95747    4.73103
       O   -15.83007   -5.44387    4.67651
      H1   -15.89629   -4.95921    5.50474
       H   -15.87389   -6.79853   12.44487
       O   -16.29272   -6.76990   13.31197
      H1   -15.81333   -6.12096   13.80362
       H   -18.72585  -10.81517    0.82556
       O   -17.93840  -10.68796    0.25460
      H1   -17.84463  -11.58679   -0.05107
       H   -17.70424  -13.82002   10.28594
       O   -17.05877  -13.35598    9.79027
      H1   -17.56005  -13.15648    8.95888
       H   -13.30249  -15.29222   11.04295
       O   -13.44185  -14.47768   10.54215
      H1   -14.00293  -14.91826    9.89909
       H   -14.78833  -10.93952    0.96366
       O   -15.53062  -11.10876    1.58610
      H1   -16.29470  -11.05913    0.93165
       H   -14.73437   -7.63659    7.64812
       O   -14.03017   -7.03903    7.82153
      H1   -14.30098   -6.25664    7.27454
       H   -18.27043   -5.25525    3.84705
       O   -18.10878   -5.98645    3.27244
      H1   -17.21687   -5.89947    2.84263
       H   -14.27203  -15.45426    3.40657
       O   -14.42525  -15.80882    4.35678
      H1   -14.59724  -15.02798    4.87717
       H   -13.17466  -10.01822   12.30745
       O   -12.86139  -10.00646   13.23630
      H1   -13.42263  -10.77739   13.55483
       H   -12.34756  -12.05908    6.07739
       O   -12.50962  -12.81278    5.47502
      H1   -11.90243  -12.54443    4.70461
       H   -15.23683  -13.46370    6.22644
       O   -15.99537  -13.73102    5.71806
      H1   -15.99987  -12.96206    5.14653
       H   -13.75514   -4.13388    5.95890
       O   -13.22534   -4.86515    6.20590
      H1   -13.10054   -5.23372    5.32989
       H   -18.81384   -8.00351   -1.09800
       O   -17.95225   -7.86579   -0.65907
      H1   -17.86308   -8.78418   -0.34040
       H   -11.44952   -6.92353    1.72747
       O   -11.59334   -5.99672    1.92520
      H1   -12.25676   -6.12577    2.63105
       H   -16.08557  -11.18177    3.40577
       O   -15.83988  -10.98522    4.37679
      H1   -14.89932  -11.06601    4.21365
       H   -17.79984   -2.70779   11.57444
       O   -17.95303   -3.57362   11.13997
      H1   -18.53765   -3.98079   11.76616
       H   -14.48645   -2.77084    9.09363
       O   -14.40533   -1.89990    8.65235
      H1   -14.54072   -2.17385    7.72719
       H   -15.11318  -14.96589   12.90233
       O   -14.66508  -14.06057   13.05177
      H1   -14.16690  -13.95698   12.20593
       H   -18.22941  -13.52779    4.22287
       O   -18.36620  -12.53473    3.98077
      H1   -18.91404  -12.28344    4.70680
       H   -12.69690   -8.85793    6.11728
       O   -12.59591   -8.42163    5.25087
      H1   -12.49998   -9.18713    4.62963
       H   -16.55789  -13.40203   12.96329
       O   -16.98159  -12.53241   12.95125
      H1   -16.76178  -12.07546   13.76644
       H   -12.25197  -11.02297    3.14872
       O   -13.03214  -10.45897    3.28949
      H1   -13.09284   -9.84937    2.53006
       H   -14.20328   -2.90437    4.01912
       O   -13.82391   -3.07471    3.13072
      H1   -14.15320   -3.89426    2.86652
       H   -19.81191   -2.65045    9.20212
       O   -18.96156   -2.29268    8.86970
      H1   -18.35107   -2.68246    9.60881
       H   -13.21950  -10.57736    7.27868
       O   -12.34574  -10.92824    7.37664
      H1   -11.80513  -10.41167    7.99976
       H   -16.31683   -4.82387   11.49920
       O   -15.84241   -5.45290   10.91882
      H1   -14.84124   -5.34215   11.10521
       H   -15.70431   -1.80376    5.75532
       O   -14.77025   -2.14142    5.69381
      H1   -14.13376   -1.41987    5.49967
       H   -16.55161   -5.52336    8.58940
       O   -16.49938   -5.09786    7.72969
      H1   -17.48518   -5.10594    7.49757
       H   -15.76787  -16.71381    4.54759
       O   -16.39338  -17.42200    4.79475
      H1   -16.60979  -17.29824    5.75872
       H   -13.05208  -14.03625    1.97503
       O   -14.00214  -14.25561    1.84291
      H1   -14.50322  -13.95031    2.58322
       H   -17.48167  -16.22838    4.31237
       O   -18.02490  -15.41656    4.08822
      H1   -18.82208  -15.73257    4.52525
       H   -16.50171   -7.15987   16.16924
       O   -16.73906   -7.99150   15.66881
      H1   -16.65654   -7.76475   14.73521
       H   -16.84959   -7.04371   10.41196
       O   -17.71720   -7.45191   10.32301
      H1   -17.95423   -7.27806    9.36756

