180
frame 1 | Written by MDAnalysis XYZWriter (release 2.4.3)
       H    16.04898    9.67174   -6.30674
       O    16.26905   10.15227   -7.13332
      H1    15.50047    9.94228   -7.67580
       H    15.36596    4.71744  -19.93118
       O    14.78129    5.17030  -19.23800
      H1    15.55456    5.42312  -18.64917
       H    15.92067   11.95745  -13.37749
       O    16.65252   12.44312  -12.94050
      H1    16.04794   13.00184  -12.40522
       H    14.14440    4.31179   -8.78126
       O    14.78583    5.09545   -8.99637
      H1    15.59407    4.50613   -8.98997
       H    11.16513    8.53671  -13.01376
       O    10.42864    7.95532  -12.90367
      H1    10.86835    7.22259  -13.37333
       H    18.95533    0.51359  -11.69285
       O    19.22928    1.23498  -12.30013
      H1    20.00093    1.59578  -11.81144
       H    17.49931    7.21074   -8.35343
       O    17.28777    6.53928   -9.03141
      H1    16.34869    6.43884   -9.01793
       H    17.73139   14.92689  -17.50890
       O    17.85062   15.88682  -17.38693
      H1    17.50516   15.98725  -16.48268
       H    16.87703    8.12573   -4.21123
       O    16.32581    8.89607   -4.53822
      H1    15.43902    8.52396   -4.47289
       H    16.22459    9.52888  -14.57618
       O    16.11542   10.12656  -15.34453
      H1    17.07224   10.43933  -15.47574
       H    17.99219    7.39610  -17.24252
       O    18.41339    6.83316  -16.58039
      H1    19.31522    6.98480  -16.84578
       H    17.78151    2.04314  -11.52799
       O    16.89369    2.26162  -11.10861
      H1    17.11230    2.68002  -10.28187
       H    16.75667   13.40951  -14.60365
       O    16.78839   13.80510  -15.52050
      H1    15.98221   13.37995  -15.81343
       H    14.39558    8.16554  -14.43426
       O    13.90766    8.98818  -14.43173
      H1    14.46132    9.62915  -14.98403
       H    14.75848    4.88933  -13.96236
       O    14.38645    5.80184  -13.98967
      H1    13.41332    5.74081  -14.14269
       H    19.39212   13.53856  -19.19968
       O    18.59584   13.40339  -18.58984
      H1    18.23874   12.78132  -19.31507
       H    16.61685    5.15921  -12.75716
       O    17.37846    5.68290  -12.42116
      H1    17.96699    5.49298  -13.18342
       H    11.42600    5.86283  -14.89977
       O    11.67042    5.89187  -13.97842
      H1    11.35783    5.05448  -13.59871
       H    15.12307    4.45407   -5.77953
       O    14.39899    5.09810   -5.76428
      H1    14.60419    5.47094   -6.61684
       H    11.56858    8.04264   -7.04545
       O    11.37699    8.43573   -7.89827
      H1    10.72232    7.87512   -8.31753
       H    16.75193    8.54719  -18.97536
       O    17.56148    8.34480  -18.56797
      H1    18.10283    9.17113  -18.63749
       H    14.38051   13.59342  -17.57000
       O    14.91753   14.36424  -17.41141
      H1    15.36236   14.52019  -18.27055
       H    16.05035   10.55975   -3.76634
       O    16.22890   11.52210   -3.47589
      H1    15.58274   11.63401   -2.75780
       H    17.23825    5.23176   -3.80376
       O    16.81917    4.38936   -3.53956
      H1    16.22008    4.70222   -2.84650
       H    17.34661   11.98009   -6.67277
       O    17.92941   12.64289   -7.10069
      H1    17.92582   13.37360   -6.40814
       H    15.37322   14.93227  -11.51513
       O    14.60606   14.48795  -12.03532
      H1    14.27107   15.28718  -12.40434
       H    15.44384    2.38005  -17.11996
       O    15.92939    1.64582  -16.85359
      H1    15.53215    1.26218  -16.04504
       H    12.93443    6.16909  -11.97400
       O    12.76690    5.53633  -11.27243
      H1    13.62248    5.48212  -10.74435
       H    18.05633   16.36342  -13.63647
       O    18.38338   16.21524  -12.73086
      H1    17.59968   15.81641  -12.27553
       H    17.77007    4.17914  -18.64721
       O    17.30451    4.49998  -17.84148
      H1    17.90040    5.22635  -17.60435
       H    17.75211   14.84933  -10.24161
       O    16.85923   14.75362  -10.62977
      H1    16.67356   13.87223  -10.24078
       H    16.54915    6.48747  -16.10448
       O    15.63055    6.73711  -16.31584
      H1    15.18210    6.25670  -15.63420
       H    18.65416    4.87732  -11.55575
       O    19.23393    4.49664  -10.84865
      H1    18.49899    4.32579  -10.16005
       H    12.68281    9.07988  -17.24739
       O    13.60524    8.88321  -17.37033
      H1    13.96379    8.44225  -16.61061
       H    18.29542   11.70906  -12.55963
       O    19.22112   11.44338  -12.44400
      H1    19.19176   10.44512  -12.45405
       H    19.68939    7.62182  -11.52198
       O    19.32467    8.48289  -11.82822
      H1    18.69066    8.20499  -12.52084
       H    14.67881   12.27955   -9.61793
       O    13.78078   12.12371   -9.99005
      H1    13.69025   12.81404  -10.66530
       H    18.40243   11.89930  -16.98111
       O    18.65748   11.19996  -16.34037
      H1    19.13162   11.75381  -15.71515
       H    15.81002    8.79826  -12.76233
       O    16.41002    8.26877  -13.28128
      H1    16.74616    7.55015  -12.73882
       H    19.32090    1.76035   -7.79373
       O    18.63278    1.46548   -7.21863
      H1    19.01947    1.53836   -6.31952
       H    17.73440    2.38727  -15.59482
       O    17.86785    3.29366  -15.23456
      H1    17.57847    3.84274  -15.96480
       H    10.19193    4.82910   -9.72773
       O    10.75983    4.13133  -10.12298
      H1    11.44481    4.69899  -10.49930
       H    12.20609   11.38713  -13.07349
       O    11.72984   10.67014  -12.67704
      H1    11.07144   10.97194  -12.03517
       H    13.70208   14.24596   -7.33268
       O    14.61307   13.96883   -7.16707
      H1    15.06653   14.70922   -7.59486
       H    13.46140   10.60304   -9.08829
       O    13.78026    9.87416   -8.53625
      H1    12.97733    9.29898   -8.41965
       H    19.24487    4.57646  -14.85062
       O    19.60807    5.46635  -14.45379
      H1    19.52408    6.03636  -15.24739
       H    17.55517    9.02514   -7.44632
       O    18.35735    8.45080   -7.33818
      H1    18.22755    8.09467   -6.46227
       H    11.99571    3.64972   -8.66685
       O    12.82473    3.19588   -8.42307
      H1    12.88606    2.38587   -8.97957
       H    13.07412   11.58178   -5.87343
       O    13.28437   10.68758   -6.07590
      H1    13.45311   10.59797   -7.05507
       H    14.02953    9.55014  -12.87481
       O    14.63312    9.76776  -12.10033
      H1    13.97662    9.99443  -11.42521
       H    17.50927   11.76902   -9.94422
       O    16.89639   12.35756   -9.57310
      H1    17.29072   12.49838   -8.69364
       H    17.64396    4.62893   -8.24826
       O    17.34607    3.70952   -8.60221
      H1    17.57503    3.23335   -7.79548
       H    15.26254    0.95967  -12.64895
       O    15.83692    0.37372  -13.22330
      H1    16.51784    0.17347  -12.53147
       H    18.45039    2.04543  -19.89193
       O    18.67684    2.95056  -19.64528
      H1    19.30783    2.75073  -18.89223
       H    16.78428    3.21550  -13.86626
       O    16.00663    3.52176  -13.45759
      H1    16.15379    3.32930  -12.52542
       H    13.78030   11.47391  -17.10149
       O    13.31369   12.26655  -17.31173
      H1    13.26200   12.18625  -18.26203
       H    19.61994    0.22137  -16.33768
       O    18.94716    0.41198  -15.66637
      H1    19.33916    0.75468  -14.87522
       H    18.88890    7.50049   -3.53625
       O    18.06067    6.94776   -3.51019
      H1    17.83268    7.00701   -2.53196
       H    16.12180   16.02443   -9.62058
       O    15.70269   16.29136   -8.80876
      H1    16.30128   16.79649   -8.27728
       H    13.59917   13.40480  -13.48835
       O    12.85124   12.96164  -13.90824
      H1    12.07205   13.35979  -13.46064

