180
frame 8 | Written by MDAnalysis XYZWriter (release 2.4.3)
       H    10.55673   11.37731  -16.43596
       O    10.81747   12.25828  -16.18567
      H1    11.53868   12.08923  -15.59062
       H     9.51939    9.69317  -10.08985
       O    10.29762    9.53725  -10.64129
      H1    10.40966    8.57775  -10.42552
       H    15.37377   11.30362   -6.94378
       O    15.81937   11.77110   -7.68959
      H1    15.09772   12.31543   -8.02497
       H    15.39991   14.51740  -14.19703
       O    14.88491   15.16954  -13.68796
      H1    14.00967   15.13167  -14.17766
       H    12.87306    4.34808  -17.34783
       O    12.27079    4.87619  -16.85065
      H1    11.72056    4.17115  -16.48201
       H    18.67622   11.87333  -15.83844
       O    18.91341   12.32289  -15.02747
      H1    19.30171   13.15846  -15.35824
       H    15.67694    8.17495   -8.93522
       O    16.19671    7.94607   -8.16207
      H1    16.71501    7.12761   -8.33759
       H    11.69297    8.44485  -13.43001
       O    11.11094    7.90572  -13.92811
      H1    11.81026    7.29354  -14.33987
       H    18.81554    9.33860   -9.33263
       O    19.34185    9.39249  -10.16576
      H1    18.90587   10.14162  -10.62227
       H    17.54153   14.23845  -18.01051
       O    17.53749   14.89065  -17.28545
      H1    17.10816   14.32608  -16.64552
       H    12.13266   15.03325  -17.15818
       O    12.61893   14.99190  -16.34790
      H1    12.92051   14.07957  -16.40401
       H    13.90038    6.53480  -18.87921
       O    13.67670    6.52778  -19.78850
      H1    14.44665    6.02565  -20.09595
       H    16.97762    9.79669  -16.66313
       O    17.15112   10.30542  -15.84318
      H1    17.98027    9.83043  -15.57169
       H    11.79336    5.16636   -8.16641
       O    11.92078    5.97588   -8.75126
      H1    12.79710    6.26767   -8.42896
       H    17.15670    6.79240  -14.80675
       O    18.08911    6.57673  -15.08748
      H1    18.57196    7.35988  -14.64860
       H    14.94771    3.33080  -18.93302
       O    14.20291    3.27455  -18.28926
      H1    13.46250    2.77363  -18.74110
       H     7.91797   12.85593  -14.65735
       O     8.12161   12.85542  -15.61878
      H1     9.07900   12.57681  -15.59884
       H    16.70424   12.51667  -15.31772
       O    16.23745   13.40348  -15.34471
      H1    15.46209   13.09416  -15.88777
       H     8.72098    6.88026  -17.96075
       O     8.12404    7.64515  -17.88844
      H1     8.67417    8.31570  -17.54069
       H    15.48108    9.93383  -13.06884
       O    14.85973   10.50555  -13.45616
      H1    14.93609   11.34153  -12.96665
       H    15.18843    5.59800  -13.03370
       O    14.88325    6.23259  -12.34786
      H1    14.00874    6.45340  -12.77399
       H    10.32438    3.88398  -14.84844
       O     9.95317    3.42488  -15.60248
      H1     9.01018    3.50857  -15.41548
       H    15.95767    3.51378  -13.23621
       O    16.66677    3.99086  -12.75122
      H1    17.43216    3.91629  -13.46839
       H    13.05561    5.69549  -15.23175
       O    12.86094    5.99417  -14.35052
      H1    11.99585    5.53355  -14.18730
       H    14.78832    5.44380   -7.35843
       O    14.24035    6.27752   -7.36797
      H1    14.99886    6.86229   -7.49540
       H    16.34974    9.21663  -19.39311
       O    16.50105    8.86860  -18.50912
      H1    17.04001    8.16176  -18.69048
       H    13.44219   11.75209  -16.83079
       O    13.84995   12.61160  -16.70042
      H1    14.07017   12.84233  -17.64495
       H     8.47047    7.81033  -12.09475
       O     9.19074    7.16513  -12.25394
      H1     9.88819    7.76262  -12.66732
       H    11.82808   15.19868  -15.01087
       O    11.66647   15.71636  -14.14351
      H1    11.20859   16.45566  -14.55879
       H    15.98791   16.16472  -12.83476
       O    16.36314   16.85660  -12.24825
      H1    15.81473   17.72859  -12.33302
       H    15.28184   12.86845  -11.60708
       O    14.37554   13.01735  -12.09343
      H1    14.39347   13.85639  -12.55569
       H    14.86742    2.45873  -16.89961
       O    15.49005    2.03769  -16.29191
      H1    15.04681    1.18794  -16.26808
       H    13.79231    8.83009  -10.45152
       O    14.17903    9.12042   -9.56543
      H1    13.48061    8.93657   -8.96463
       H    17.99990    6.62921  -16.81422
       O    17.97874    6.52980  -17.76569
      H1    18.79124    6.16201  -17.91799
       H    10.85995    9.31327  -15.71417
       O    10.16090    9.58872  -16.30511
      H1     9.41030    9.67597  -15.75605
       H    13.77765   13.39565  -19.83235
       O    14.48974   12.96954  -19.26283
      H1    14.31434   12.05681  -19.50922
       H    15.61569    9.00482  -14.83061
       O    15.81071    8.03184  -14.84977
      H1    15.26601    7.69843  -15.60358
       H    18.01182    4.66969  -11.60895
       O    18.82104    4.78000  -11.10921
      H1    18.48254    5.28508  -10.31604
       H    14.01507    8.24180  -17.38564
       O    14.47060    7.42700  -17.26325
      H1    15.25057    7.70070  -17.71303
       H    19.27070    8.00736  -13.12817
       O    18.65762    8.58271  -13.68218
      H1    17.89754    8.62593  -13.05468
       H    10.88360   11.64643  -10.77298
       O    11.63135   12.16873  -10.56612
      H1    11.30228   13.09382  -10.71585
       H    10.00918    5.85400  -13.03946
       O    10.28826    4.98304  -13.35479
      H1     9.95135    4.33034  -12.71773
       H    13.01767    2.48972  -14.09656
       O    12.29999    2.31458  -14.72171
      H1    11.51900    2.40996  -14.18783
       H    16.23991    8.87656  -11.11412
       O    16.44554    8.70746  -12.06005
      H1    16.02718    7.82655  -12.17281
       H    18.56209    2.27829  -16.67869
       O    18.18069    3.11467  -16.93840
      H1    17.25874    2.95071  -16.81116
       H    12.65208    5.04356  -10.07053
       O    13.19445    4.42381  -10.59005
      H1    13.83576    5.05643  -10.98030
       H    13.51316    9.35003  -12.69449
       O    12.78621    9.09005  -12.13433
      H1    12.40823    9.89606  -11.84976
       H    12.50177   12.23110   -8.84293
       O    12.96527   11.95014   -8.03438
      H1    13.35174   11.16493   -8.42727
       H    18.86166    3.77448  -15.27161
       O    18.92443    4.00611  -14.36112
      H1    18.84627    4.96112  -14.46852
       H    17.66860    8.62880   -7.66578
       O    18.57041    9.08290   -7.69289
      H1    19.04497    8.31206   -7.30192
       H    14.81830    3.85458  -10.17420
       O    15.64331    3.39093  -10.26275
      H1    15.91440    3.63394  -11.15263
       H    16.35569   11.99932   -9.96032
       O    16.60534   11.85729  -10.87709
      H1    17.26637   12.59906  -10.98374
       H    19.51315   12.33050  -12.11795
       O    19.20936   12.89154  -11.34065
      H1    19.84996   12.70375  -10.69001
       H    18.66881    6.17721   -8.40195
       O    17.92831    5.84607   -8.87777
      H1    17.95391    4.93460   -8.69309
       H    10.34223   14.33329  -18.44654
       O    10.26856   13.47238  -18.88602
      H1    10.24817   12.98603  -18.07556
       H    14.79484    1.84624  -14.30112
       O    14.69090    2.38164  -13.52799
      H1    14.54993    1.77635  -12.77712
       H    20.19598   10.43466  -18.53545
       O    19.71956   10.78948  -19.32041
      H1    18.81722   10.41513  -19.20365
       H    12.17510    9.61075  -18.11989
       O    13.15556    9.73721  -18.05266
      H1    13.42142    9.72150  -18.98911
       H    11.31612    5.73234  -18.40155
       O    10.86286    5.99884  -19.24968
      H1    11.68403    5.94219  -19.74414
       H    12.99689   12.06744  -13.30836
       O    12.09366   11.96335  -13.56954
      H1    11.64712   12.30670  -12.79769

