180
frame 11 | Written by MDAnalysis XYZWriter (release 2.4.3)
       H     7.74863   -2.69514    5.16290
       O     7.21496   -3.26410    5.74466
      H1     6.59996   -2.58383    6.08317
       H     0.47210   -0.55229    6.60023
       O     0.10226    0.28226    6.26792
      H1    -0.00366    0.18643    5.30836
       H    -0.41158   -4.49459    7.20947
       O     0.40813   -5.04827    7.28973
      H1     1.02363   -4.47644    7.74323
       H     4.68790    0.14109   10.10221
       O     5.27533   -0.35680   10.71320
      H1     5.08367    0.09770   11.55383
       H     6.07275   -3.29815    2.15693
       O     6.26408   -2.57063    1.54478
      H1     6.23432   -2.89969    0.64345
       H     8.65626   -9.25231    8.59621
       O     9.10751   -8.50943    8.26258
      H1     8.82049   -7.77748    8.84045
       H     3.08691    0.79603    8.49071
       O     2.93659    0.93534    9.46457
      H1     2.87529    1.91845    9.50543
       H     8.28442    3.06772    5.99029
       O     7.90784    2.21488    5.79376
      H1     7.91427    2.09286    4.84748
       H     9.94547    0.19001   11.51812
       O     9.53080    0.98954   11.90455
      H1     9.93149    1.05027   12.80187
       H     6.62097    5.55196    9.95747
       O     7.11788    4.89851    9.32923
      H1     6.39767    4.56579    8.79211
       H     1.85312    3.79325    9.50646
       O     2.79787    3.54912    9.24377
      H1     3.26626    3.88508   10.02866
       H     6.91600   -1.06560   10.93322
       O     7.78707   -1.54163   10.87976
      H1     7.82133   -2.00761   11.75586
       H     5.40411    3.05632    7.67348
       O     5.09985    3.94374    7.57511
      H1     4.22004    3.95650    7.96785
       H     0.38275   -2.09871    8.02287
       O     1.31325   -1.77796    7.75133
      H1     1.41471   -2.26120    6.96246
       H     1.57535    0.30835   11.88127
       O     1.58671   -0.62969   11.64112
      H1     2.04120   -0.74288   10.77157
       H     2.06964    1.42399    6.57045
       O     2.91155    0.99219    6.72994
      H1     2.82969    0.41481    5.96911
       H    13.03327   -0.54207    8.10721
       O    12.41874    0.08397    8.54320
      H1    13.04752    0.91708    8.47384
       H     7.10633   -2.07263   14.01846
       O     7.63493   -2.52262   13.34658
      H1     7.22767   -3.41423   13.29496
       H     3.96538   -0.84613    4.66336
       O     3.21374   -1.22927    5.13249
      H1     3.68858   -1.38367    5.98808
       H     5.80745   -3.60907    4.45724
       O     5.06693   -4.19005    4.12721
      H1     5.52511   -5.03311    3.85241
       H    11.63490   -2.90642    4.42251
       O    12.15899   -2.16805    4.13187
      H1    12.91060   -2.55889    3.64095
       H     3.22571   -7.86447    8.61949
       O     3.97743   -7.78080    9.25242
      H1     4.74681   -7.89029    8.61996
       H     7.75026    0.23763   13.19434
       O     6.98739    0.42597   13.79370
      H1     6.39947    0.99099   13.23613
       H     7.83401   -2.36445    2.98782
       O     8.64796   -2.24974    3.42422
      H1     9.32847   -2.38334    2.70159
       H    11.16464   -3.87260    8.71193
       O    10.87806   -4.36039    9.49725
      H1    10.03419   -4.73508    9.11311
       H     2.76340   -4.26384    2.35828
       O     3.37312   -3.81754    1.77764
      H1     4.04111   -3.52218    2.43317
       H     6.84684    1.66206    6.91564
       O     6.17659    1.34530    7.56669
      H1     6.55045    1.40734    8.46212
       H     3.01100    3.18825    4.11072
       O     2.28591    3.44544    3.56076
      H1     2.31519    2.67076    3.03983
       H     2.82337   -4.00269    9.15996
       O     2.62328   -4.91567    8.80343
      H1     3.41028   -5.05052    8.17614
       H     2.96339   -3.26508   12.28360
       O     2.30375   -3.16409   12.94798
      H1     1.89986   -2.36832   12.60828
       H     4.19085   -2.16632    9.25182
       O     3.29669   -2.41801    9.54420
      H1     2.72164   -2.09595    8.83758
       H     2.00374   -6.36151   11.62179
       O     1.35517   -5.69758   11.30082
      H1     1.84407   -5.51158   10.49377
       H     9.60310    1.01417    0.81312
       O     9.87998    0.59390    1.66003
      H1     9.04108    0.59676    2.18817
       H     8.06297   -6.21578    9.38764
       O     7.91051   -6.93313   10.05203
      H1     8.56208   -6.60682   10.70977
       H    11.67418   -2.89609    7.08270
       O    10.76041   -2.92310    6.76894
      H1    10.56363   -2.00544    6.54487
       H     5.88077   -0.44033    7.10997
       O     5.38791   -1.26389    6.87190
      H1     5.75370   -1.83745    7.48209
       H     8.18917   -4.12404    8.02910
       O     8.52974   -5.07255    8.08390
      H1     9.17944   -4.97607    7.31688
       H     1.52458   -3.40973    4.47590
       O     1.00805   -2.62643    4.40238
      H1     1.70019   -1.94903    4.61516
       H     5.66435   -5.12207    6.87626
       O     4.77500   -5.11816    6.59436
      H1     4.88208   -4.59529    5.78967
       H    11.14155   -6.18629    6.50340
       O    11.73346   -6.98049    6.65687
      H1    10.95421   -7.47854    6.92478
       H     4.72900   -7.88620    4.93306
       O     3.85982   -7.44734    4.76346
      H1     3.88982   -6.74256    5.42367
       H     4.00299   -0.86203    1.45767
       O     4.22223    0.08943    1.53305
      H1     3.34790    0.43212    1.71849
       H    -1.57170   -3.19231    5.78005
       O    -0.86520   -2.70644    6.23687
      H1    -0.27789   -2.39798    5.53142
       H     7.99658    3.46468    2.64519
       O     7.39160    2.71494    2.83266
      H1     7.27524    2.49161    1.86254
       H     1.92837   -5.87497    4.85634
       O     1.84500   -5.28584    4.08972
      H1     0.89336   -5.07858    4.00035
       H     6.80343   -5.82040   13.30947
       O     6.49534   -4.90487   13.22240
      H1     6.35667   -4.86654   12.26397
       H    10.86815    0.02698    5.25517
       O    10.33286   -0.32565    5.97786
      H1     9.50932    0.24042    5.93506
       H     5.63118    2.87150   12.73868
       O     5.39034    2.03023   12.32573
      H1     5.94332    2.06984   11.48908
       H     4.41659    2.10903    5.72460
       O     4.69195    2.19733    4.80819
      H1     5.60818    2.45306    4.68301
       H     8.09063    1.63783    9.65773
       O     7.24634    2.08130    9.90539
      H1     7.44522    2.99059    9.53663
       H     8.97568   -5.01711    5.04073
       O     9.82874   -4.96826    5.45548
      H1     9.91031   -4.06555    5.74767
       H     6.74019   -6.94222    4.04952
       O     6.64851   -6.53912    3.13191
      H1     6.27254   -7.16167    2.57951
       H     6.93948   -8.70685    5.59007
       O     7.60699   -7.96861    5.56291
      H1     8.02514   -8.00126    6.42519
       H     9.55484   -1.06995   10.62797
       O    10.49892   -1.16904   10.67748
      H1    11.04657   -0.70883    9.99852
       H     3.46437   -4.89464   14.47255
       O     3.93762   -5.55629   13.99299
      H1     4.71334   -5.04859   13.66521
       H    10.44474   -2.40118   13.40593
       O    10.80208   -3.06472   12.76327
      H1    10.52165   -2.83132   11.86551
       H     5.97651   -3.88225    9.25239
       O     6.24078   -3.01807    8.97272
      H1     6.98059   -2.79026    9.53164
       H     6.42912   -6.19802   10.32203
       O     5.61048   -5.64663   10.20188
      H1     4.94745   -6.30685   10.02199
       H     5.69581    0.40796    4.67299
       O     5.66073   -0.30212    3.99591
      H1     5.28365    0.15096    3.27263
       H    10.43761    1.21079    8.07801
       O     9.84366    1.52157    8.75488
      H1    10.49984    1.78620    9.45670

