180
frame 10 | Written by MDAnalysis XYZWriter (release 2.4.3)
       H    17.24634   18.04316   -2.29697
       O    16.64111   18.83239   -2.31937
      H1    16.58850   19.23015   -3.14986
       H    15.89988   10.26928   -7.46856
       O    15.99836   11.21049   -7.33232
      H1    15.59180   11.44246   -8.18202
       H     9.76934   13.37976   -6.22581
       O    10.20782   14.18422   -6.11803
      H1     9.56185   14.66537   -5.52136
       H    18.61140   13.10398    3.59843
       O    18.20591   13.82547    4.09991
      H1    17.49176   13.36259    4.61268
       H    11.91901   14.73926   -0.87126
       O    11.16510   14.76665   -0.29753
      H1    10.69122   15.57202   -0.61679
       H    13.91241   17.79726   -5.71289
       O    14.71599   18.35786   -5.48011
      H1    15.26639   17.81047   -4.92809
       H    14.96619   18.62173   -7.40872
       O    15.73392   18.44474   -7.91961
      H1    15.91379   17.50262   -7.69072
       H    16.68333   11.77395    0.45060
       O    17.47748   11.57241    0.01913
      H1    18.10319   11.60562    0.77206
       H    15.37007   10.07002   -2.32758
       O    16.11756    9.47522   -2.55729
      H1    16.73115   10.00748   -3.03043
       H    16.24932   14.35436    1.69168
       O    16.33200   15.08631    2.33223
      H1    17.08489   14.72377    2.85971
       H     8.47231   16.18270    0.79866
       O     8.55996   16.45526   -0.18550
      H1     7.66499   16.87388   -0.25378
       H    18.84597   10.20607   -9.27147
       O    19.24608   10.96293   -9.73917
      H1    18.64630   11.69745   -9.56192
       H    13.82659   15.12845   -2.63169
       O    13.37757   14.30783   -2.43071
      H1    12.96881   14.09402   -3.29403
       H    18.39353   18.60663  -13.65118
       O    18.27668   18.65778  -12.67389
      H1    17.43779   18.11503  -12.58206
       H    11.38424   19.57167  -10.69901
       O    12.27019   19.76549  -10.37445
      H1    12.61055   18.89224  -10.09055
       H    13.88300   19.09347    1.71138
       O    13.42843   18.28418    1.45152
      H1    12.52886   18.48902    1.72051
       H    10.62090   11.53512   -2.55124
       O    11.49676   11.76694   -2.87991
      H1    12.04725   11.80965   -2.11238
       H    12.83844   12.70680   -8.85026
       O    12.09024   12.77824   -8.21557
      H1    11.63099   13.53819   -8.62478
       H    12.87118   18.74511    4.12930
       O    13.47535   18.84297    4.89585
      H1    13.04668   19.39797    5.53450
       H    10.46744   16.48385   -8.31947
       O    10.72988   15.55592   -8.35621
      H1    10.34580   15.18208   -7.46456
       H    14.22394   12.29711    0.29240
       O    14.79497   13.12240    0.49890
      H1    15.23065   13.24826   -0.34121
       H     8.45763   14.21949   -2.43661
       O     8.02793   15.08367   -2.41782
      H1     8.36543   15.56860   -1.64750
       H    14.22117   12.61770   -2.53440
       O    15.08050   12.13322   -2.66079
      H1    15.01525   11.66759   -3.55313
       H    19.16303   15.81982   -5.66275
       O    18.90715   16.38701   -4.93586
      H1    18.91080   17.25690   -5.37506
       H     8.60912   19.25649   -3.01512
       O     8.32503   18.44602   -2.57054
      H1     8.44284   17.80328   -3.25969
       H     8.90933   15.21746    3.41079
       O     9.31572   15.79546    2.67392
      H1     9.74564   16.41986    3.25281
       H    11.53199   13.47914   -5.20005
       O    12.39080   13.19726   -4.88288
      H1    12.27237   12.45864   -4.20224
       H    16.96022   13.43543   -5.02281
       O    16.99892   13.53360   -4.10126
      H1    16.29497   13.04855   -3.66532
       H    17.81133   14.07081   -0.95725
       O    17.73114   14.66591   -0.18542
      H1    18.43870   14.29174    0.36942
       H    15.62330   16.25827  -12.87832
       O    15.83488   17.22077  -12.71630
      H1    15.89657   17.60084  -13.57202
       H    16.86539   12.82640   -7.20626
       O    17.58711   13.38372   -6.93918
      H1    17.22851   14.32607   -7.10296
       H    20.11535   15.12906   -8.46472
       O    19.75456   14.73405   -7.64818
      H1    18.99207   14.25567   -7.90863
       H    18.12844   15.90655   -3.22901
       O    18.02237   16.32483   -2.34294
      H1    18.27194   15.53426   -1.78323
       H    17.44460   17.10867   -9.61637
       O    17.32684   16.36311  -10.22818
      H1    16.73392   16.66629  -10.88609
       H    14.22749   18.19581   -1.67566
       O    13.39903   18.59493   -1.40512
      H1    13.27468   18.38269   -0.47672
       H    18.38992   11.77162   -6.65088
       O    18.88837   10.91261   -6.41505
      H1    18.31550   10.31416   -6.91942
       H    17.98422   17.45565    3.52407
       O    18.25051   17.02244    4.35600
      H1    17.40375   16.63059    4.55586
       H    10.93952   17.74129    4.81750
       O    11.12106   17.38726    3.92542
      H1    11.17156   16.48347    4.19947
       H    12.54179   11.37415    0.39056
       O    12.89010   11.24499   -0.54187
      H1    12.74742   10.26711   -0.69740
       H    11.10424   14.43534    2.75736
       O    11.85514   13.86204    2.40519
      H1    11.76042   14.06066    1.43461
       H     9.79828   18.49232   -6.94998
       O    10.21815   18.88808   -6.17327
      H1    10.72767   18.24615   -5.71455
       H    14.68998   17.47480    5.29798
       O    15.27563   16.66449    5.52150
      H1    14.84386   16.01560    4.95890
       H    17.41318   16.10729   -6.28832
       O    16.75748   15.94228   -6.97275
      H1    16.08724   15.50597   -6.37212
       H    18.23198   12.30434   -1.38529
       O    18.75340   12.61515   -2.16530
      H1    18.13644   12.63776   -2.94172
       H    14.04510   13.92443   -5.73904
       O    14.60842   14.71750   -5.69591
      H1    14.06672   15.25824   -6.24527
       H     8.62498   17.29080   -9.01882
       O     9.37487   17.86168   -8.75397
      H1     8.84193   18.72654   -8.82679
       H    19.05903   10.90693   -3.26602
       O    18.65526   10.18527   -3.76849
      H1    18.71359   10.45455   -4.65297
       H    16.02941   16.01052   -3.06351
       O    15.22498   16.17777   -3.49423
      H1    15.13542   15.44022   -4.10059
       H    12.33150   15.92777   -7.64606
       O    12.97560   16.54626   -7.33867
      H1    13.40814   16.66332   -8.20397
       H    14.89875   12.25741  -10.64368
       O    14.62954   12.02789   -9.70744
      H1    14.48992   11.07866   -9.66352
       H    13.64195   14.12058    3.78598
       O    14.51859   14.23850    4.16024
      H1    15.11189   14.47099    3.41221
       H    13.52383   11.55240   -5.37573
       O    14.30358   11.09659   -5.05734
      H1    14.81188   11.16723   -5.88361
       H    17.88401   14.33963  -10.08442
       O    18.21208   13.42352  -10.10434
      H1    19.02232   13.54748  -10.61468
       H    11.93322   17.71526   -1.90802
       O    11.05761   17.50782   -2.21717
      H1    10.47291   18.20814   -1.89408
       H    18.35836   19.45356   -6.87655
       O    19.03785   18.94421   -6.42935
      H1    19.73436   18.91307   -7.08434
       H     8.41557   15.92829   -3.89209
       O     8.96852   16.48427   -4.46714
      H1     9.82725   16.66578   -3.97099
       H    17.34742   16.60496    1.47481
       O    17.90408   17.40202    1.58124
      H1    17.52030   18.03319    1.00635
       H    14.39602   17.24153  -10.65056
       O    13.85595   17.45245   -9.86267
      H1    14.57023   17.91933   -9.40659
       H     6.67248   17.89733   -1.60021
       O     6.15023   17.49326   -0.88281
      H1     5.67140   16.86968   -1.51869
       H    10.64906   17.86502    1.98098
       O    10.68314   18.71882    1.46691
      H1    10.72952   19.39870    2.20046

