180
frame 9 | Written by MDAnalysis XYZWriter (release 2.4.3)
       H    -9.45087   10.30864  -12.26271
       O   -10.07490   10.04433  -12.92596
      H1    -9.63310   10.49808  -13.68765
       H    -3.86807   18.22328  -12.68480
       O    -4.60321   18.83858  -12.83963
      H1    -4.57090   18.85419  -13.79729
       H    -5.90781   18.29898   -7.82385
       O    -4.94214   18.28881   -7.95551
      H1    -4.75613   18.55058   -7.05389
       H    -4.14241   14.50875  -15.02639
       O    -3.27447   14.13061  -14.96349
      H1    -3.36250   13.35616  -14.46524
       H   -19.00409   18.76568  -17.00549
       O   -18.28752   18.60446  -17.66813
      H1   -18.69334   18.07617  -18.35606
       H   -10.34157   13.70686  -15.59836
       O   -10.70156   12.97746  -16.10680
      H1   -11.66165   13.06846  -16.02958
       H   -15.16128   15.19418  -12.82318
       O   -14.55658   15.69506  -12.18256
      H1   -14.87247   16.58163  -12.30730
       H    -6.66329   17.30918  -17.77313
       O    -7.16832   17.08516  -16.97463
      H1    -7.45121   17.96476  -16.71156
       H   -13.59543   19.57936   -7.62506
       O   -14.49489   19.36338   -7.74852
      H1   -14.52424   18.87110   -8.58303
       H   -13.51487   13.99582  -11.54617
       O   -12.89106   13.26457  -11.59711
      H1   -12.65692   13.35550  -12.52733
       H   -15.52289   18.57972  -10.69659
       O   -14.87451   17.94990  -10.41717
      H1   -15.40348   17.27948   -9.96131
       H   -12.89350   17.79554  -10.67105
       O   -11.93873   17.90837  -10.86856
      H1   -11.84998   18.62620  -11.52806
       H    -1.12532   16.92844  -16.81353
       O    -2.00024   16.99131  -16.38356
      H1    -1.78867   16.37411  -15.59765
       H    -5.36748   15.78354  -13.31247
       O    -5.88964   15.44463  -12.50438
      H1    -6.78115   15.68439  -12.77783
       H   -10.62286    8.57536  -16.55438
       O   -10.24154    8.71305  -15.68643
      H1   -10.05821    9.67452  -15.75135
       H    -7.10949   10.94312  -10.93239
       O    -7.05763   11.86499  -11.27588
      H1    -6.54079   11.71809  -12.12347
       H   -13.79743   19.66203  -14.01032
       O   -13.94038   18.72029  -13.84690
      H1   -13.67811   18.41629  -14.73064
       H     0.97252   19.58485  -13.61759
       O     0.08905   19.24952  -14.01139
      H1    -0.36087   18.95085  -13.15483
       H    -8.08526   18.73099   -8.48679
       O    -7.65313   17.90900   -8.73013
      H1    -7.42117   18.16235   -9.65402
       H    -7.94377   10.83287  -14.68164
       O    -8.73223   11.07139  -15.21784
      H1    -8.95903   11.98433  -15.00759
       H   -12.17961    9.97302  -17.86827
       O   -12.61490   10.84631  -17.55581
      H1   -11.96560   11.43670  -17.92421
       H    -4.65943   12.68228  -18.38554
       O    -5.43967   12.98188  -18.86123
      H1    -6.11137   12.29219  -18.65962
       H   -15.94336   15.07415  -16.88580
       O   -15.74446   14.12621  -17.19481
      H1   -15.04869   13.83311  -16.47397
       H    -4.01281   17.13143   -8.76701
       O    -3.14250   16.79858   -9.07501
      H1    -3.46064   15.89582   -9.32064
       H   -16.97863   17.86174  -12.98979
       O   -16.79979   18.25599  -13.82912
      H1   -15.85069   18.49490  -13.81256
       H   -11.61388   12.42080  -10.60637
       O   -11.42764   11.88838   -9.81102
      H1   -10.58545   12.29805   -9.50642
       H    -8.71319   14.83013  -10.79869
       O    -8.81597   14.08373  -11.41053
      H1    -7.97441   13.62446  -11.59683
       H    -9.49020   19.34106  -16.52935
       O    -8.70611   19.14919  -15.97788
      H1    -9.11078   18.63535  -15.25635
       H   -10.64412   16.56292   -6.83577
       O    -9.72117   16.42064   -7.20060
      H1    -9.24255   17.19420   -6.80126
       H    -8.65559   14.25056  -13.40419
       O    -8.59737   13.88633  -14.27135
      H1    -7.95204   14.48867  -14.66682
       H   -13.80917   17.92554  -17.48994
       O   -13.08777   18.30766  -16.89218
      H1   -12.30665   17.76828  -17.05950
       H    -9.37747   17.18811  -17.65817
       O   -10.31179   17.38745  -17.56105
      H1   -10.75180   16.99164  -18.32922
       H    -4.82613   14.57608   -9.21335
       O    -4.07701   14.03669   -9.35209
      H1    -4.10841   13.36004   -8.68147
       H    -6.78871   16.43172   -9.21305
       O    -6.18190   15.66168   -9.37311
      H1    -6.08086   15.76008  -10.29914
       H    -6.10390   14.98929  -16.15910
       O    -6.46718   14.07646  -16.21647
      H1    -6.61153   13.91295  -17.14878
       H   -11.65204   15.43632  -13.37868
       O   -12.39245   14.95008  -13.74273
      H1   -13.11757   15.25857  -13.17613
       H   -13.45950   12.61744  -15.40810
       O   -13.38367   13.46781  -15.81756
      H1   -13.04910   14.04043  -15.08790
       H   -13.53992   10.07390  -13.75647
       O   -13.52752   10.66990  -14.57240
      H1   -13.19508   10.06803  -15.25624
       H   -12.23820   18.87268  -13.40508
       O   -11.22395   18.75023  -13.48709
      H1   -10.91466   19.64546  -13.16121
       H    -1.83713   16.63821  -11.84543
       O    -2.37066   17.43266  -11.74008
      H1    -2.82418   17.17266  -10.95719
       H    -9.64113   16.42616   -9.15615
       O    -9.86358   16.27021  -10.05329
      H1   -10.75665   16.62990  -10.03393
       H    -8.84149   13.18177   -9.73976
       O    -9.07643   12.63055   -8.98780
      H1    -8.69157   13.11057   -8.23917
       H    -9.81270   15.21979  -19.23035
       O   -10.75978   15.37421  -19.35489
      H1   -10.58200   15.78208  -20.22138
       H    -6.42389   12.19088  -14.74705
       O    -6.08595   11.49594  -14.19921
      H1    -5.20870   11.83816  -13.94596
       H    -7.97852   11.39394  -17.52842
       O    -7.67169   11.24635  -18.42772
      H1    -8.37425   11.46968  -19.02158
       H   -10.60378   17.12695  -12.89639
       O   -10.13732   16.27594  -13.08294
      H1    -9.91606   16.03526  -12.12352
       H   -13.98563   14.24749  -18.18990
       O   -13.50531   14.82666  -18.82553
      H1   -12.67031   14.96554  -18.42630
       H    -7.60300   17.48805  -13.14759
       O    -7.69447   16.93559  -13.93176
      H1    -8.57418   16.64557  -13.78491
       H   -15.57001   12.68076  -10.68510
       O   -15.43586   12.46715  -11.61312
      H1   -14.46829   12.65795  -11.66557
       H    -5.95806   16.67084  -15.02784
       O    -5.03849   16.31618  -14.91798
      H1    -4.51856   17.13161  -14.97196
       H    -2.39843   13.40530  -18.02157
       O    -2.87650   12.68567  -17.61160
      H1    -3.12930   13.01625  -16.75900
       H   -16.83870   14.91772  -13.89493
       O   -15.93209   14.65705  -14.17503
      H1   -16.08340   13.69416  -14.25936
       H    -3.31769   19.75805  -15.50505
       O    -3.93847   19.06175  -15.73196
      H1    -3.49208   18.53471  -16.41937
       H    -7.92657   15.97757  -18.09451
       O    -8.17714   15.12439  -18.52140
      H1    -7.72324   15.18045  -19.37490
       H   -12.63442   15.91904   -8.03389
       O   -12.73925   16.64088   -7.41012
      H1   -13.35344   16.15088   -6.84717
       H    -1.61990   14.64157  -14.75161
       O    -0.77559   15.06675  -14.69857
      H1    -0.16025   14.40768  -15.09866
       H    -2.06963   17.70967  -19.61500
       O    -2.81798   17.11807  -19.46810
      H1    -2.57319   16.51540  -18.79601
       H    -7.37242   19.35306  -11.54947
       O    -6.92417   18.49874  -11.24809
      H1    -6.06401   18.55294  -11.76202
       H   -16.67136   17.02251  -15.71895
       O   -16.20233   16.78739  -16.51303
      H1   -16.55618   17.42014  -17.22301
       H   -10.51032   12.60115  -17.75253
       O   -10.44823   12.27011  -18.67132
      H1   -10.52614   13.15792  -19.07246

