180
frame 0 | Written by MDAnalysis XYZWriter (release 2.4.3)
       H     6.97636    3.88060   17.11847
       O     6.33991    4.56359   16.85638
      H1     5.87374    4.76205   17.71094
       H    11.62364    2.78231    8.97136
       O    11.60015    3.26996    8.10718
      H1    12.27705    2.84940    7.55364
       H     9.91345    3.05772   20.00470
       O     9.41113    3.45708   19.27350
      H1    10.13109    3.75419   18.66670
       H     4.52416    4.73678   12.36447
       O     4.77920    4.09314   11.70218
      H1     4.39055    3.30714   12.07741
       H    14.24443    1.73227   13.02263
       O    14.66819    0.89504   13.34584
      H1    15.47938    1.14342   13.84292
       H     7.14634    2.50770   15.46593
       O     7.92303    2.86439   15.00543
      H1     7.66372    3.00839   14.06936
       H    12.94611    2.40289   10.60675
       O    12.01614    2.11985   10.49804
      H1    11.98609    1.21323   10.88581
       H     6.74112    3.30508   11.88436
       O     7.61258    2.98007   12.27337
      H1     7.73910    2.19744   11.76172
       H     8.96221   -0.00207   12.33278
       O     9.05369   -0.99193   12.39691
      H1     8.98189   -1.22440   13.34036
       H     2.85391   -1.76656   14.55303
       O     3.73640   -1.69043   14.96280
      H1     3.58379   -0.92250   15.49631
       H    13.48194    2.28387   16.90866
       O    12.87469    2.49025   16.16582
      H1    12.39580    3.23767   16.57725
       H    11.36184   -2.00793   16.19162
       O    10.59756   -2.01609   16.80832
      H1    10.57331   -2.95882   17.02608
       H    11.91091   -4.81068   13.90498
       O    12.55315   -4.72527   14.59216
      H1    11.97006   -4.60325   15.39381
       H     4.07890    0.13038    8.68855
       O     4.33021    0.13253    7.72778
      H1     4.39429    1.08608    7.68329
       H     9.12267   -1.29248   19.57848
       O     8.87352   -1.25746   18.65215
      H1     9.69696   -1.49317   18.17426
       H     2.25678    0.47711   10.02126
       O     3.12406    0.14094   10.11129
      H1     3.05159   -0.78566    9.88814
       H    10.68865   -1.75063    6.04047
       O    10.41561   -1.64338    6.92298
      H1     9.54940   -1.28354    6.73898
       H     6.63332   -1.67283   11.39754
       O     6.25345   -1.78145   10.53954
      H1     6.52561   -2.72014   10.39590
       H     6.31190   -4.81891   18.26226
       O     5.46103   -5.15578   17.98707
      H1     5.46282   -4.74302   17.09983
       H     4.33916   -6.37130    9.20218
       O     3.69322   -6.29468    9.93028
      H1     4.10162   -5.68050   10.58029
       H     6.14085   -6.34649   16.82799
       O     6.50480   -6.86456   16.05367
      H1     6.38916   -7.71828   16.49652
       H     8.43156   -6.90111   17.35806
       O     8.89357   -6.23998   17.93939
      H1     8.70678   -6.61009   18.79946
       H     7.99135   -3.22432   19.03296
       O     7.67280   -4.06030   19.43472
      H1     8.40918   -4.61341   19.19456
       H    11.35586   -0.81274   11.80895
       O    11.69839   -0.79891   10.91682
      H1    12.54891   -1.12094   11.24273
       H    10.55705   -6.22882   11.60736
       O    10.41263   -5.60189   12.38135
      H1     9.52014   -5.29161   12.23108
       H     9.30108    3.69639   11.14074
       O    10.12810    4.11327   10.85422
      H1    10.80856    3.41927   10.78875
       H    14.58714   -0.40378   12.20647
       O    14.38077   -1.14134   11.61099
      H1    15.06390   -1.80410   11.92766
       H    11.54556    0.31697   14.51936
       O    12.38079   -0.08100   14.21399
      H1    13.08350    0.52056   14.49297
       H     5.09787    1.31999   16.71079
       O     5.86666    1.20068   16.10508
      H1     6.51111    0.64784   16.54381
       H    12.34159   -0.69507    7.43979
       O    12.76666   -0.01365    7.94896
      H1    12.45355   -0.16518    8.81793
       H    10.58825   -6.93606   13.35292
       O    11.06189   -7.69768   13.87430
      H1    10.41832   -7.93560   14.51470
       H     9.07642    1.63448    9.76577
       O     8.63177    1.19269   10.51107
      H1     8.09194    0.51497   10.08101
       H    11.32386   -5.02449   17.82522
       O    10.96516   -4.87155   16.98373
      H1    10.14148   -5.36097   17.14809
       H    14.80772   -2.22434   15.77000
       O    15.73660   -1.94566   15.54558
      H1    15.87572   -1.08593   15.97348
       H     5.04901    0.78591   13.02865
       O     4.25213    1.19735   12.59737
      H1     4.11469    0.58792   11.85130
       H     8.86629    4.60739   15.00414
       O     9.49445    5.24714   15.23126
      H1     8.94471    6.02941   15.08291
       H     6.47578   -5.73395    8.27745
       O     5.88843   -6.51503    8.09395
      H1     6.48631   -7.14130    8.55841
       H    11.08221   -2.18186    9.74864
       O    11.10939   -2.89703    9.08879
      H1    10.95416   -2.48508    8.25939
       H     6.26862   -6.07103   14.51395
       O     5.88219   -5.80498   13.66483
      H1     5.98356   -6.58081   13.09324
       H    12.79376   -3.06991   15.01487
       O    12.96096   -2.31452   15.59775
      H1    12.70257   -1.57991   15.01284
       H    13.97727    4.65446   14.37255
       O    14.56216    3.85868   14.26837
      H1    13.90540    3.10905   14.53624
       H     7.16470   -3.63508    7.48239
       O     7.52384   -4.29632    8.14285
      H1     8.45448   -4.15853    8.16402
       H     3.63122   -6.13827   15.56966
       O     3.30323   -5.85382   14.71963
      H1     4.18083   -5.82670   14.26517
       H     4.99513   -1.28333   13.87504
       O     5.86028   -1.14052   13.43450
      H1     6.56784   -1.21318   14.02632
       H    11.22647   -6.62041    9.45469
       O    10.85172   -7.22855   10.14229
      H1    10.36648   -7.86970    9.61086
       H    13.68157   -7.70707   14.92996
       O    14.47251   -7.13435   14.81761
      H1    14.18208   -6.28401   14.50980
       H     8.80568   -1.16175   15.28496
       O     8.35111   -1.98919   15.09561
      H1     8.48795   -2.29112   15.99288
       H     6.35764    4.99251   15.19465
       O     6.14172    5.53713   14.39149
      H1     6.97234    5.54131   13.84435
       H     7.46607    5.74696    8.57151
       O     7.92088    5.21847    9.24471
      H1     7.33980    4.47196    9.27668
       H    13.41555   -1.72302   17.84152
       O    13.65940   -1.29566   18.64755
      H1    14.58208   -1.56606   18.88524
       H    11.99186   -4.51715    8.73941
       O    12.20235   -5.38874    8.49415
      H1    12.27924   -5.24862    7.52706
       H     2.54624    1.96100   12.78215
       O     1.66449    2.39348   12.57371
      H1     1.43508    2.82049   13.47053
       H     2.71856   -4.39526   17.50631
       O     3.18439   -3.60236   17.69658
      H1     4.04011   -3.98827   17.76766
       H     7.12171   -4.86836   12.82511
       O     7.60471   -4.44688   12.09732
      H1     7.75911   -3.55256   12.37820
       H     8.49363    1.98800   18.66898
       O     8.05409    1.28085   18.19581
      H1     8.55646    0.50515   18.50241
       H     4.97770   -3.55099   15.31627
       O     5.73813   -3.63660   15.92565
      H1     6.44063   -3.15527   15.42537
       H     9.49098    0.96987   16.50552
       O     9.51172    0.64294   15.59251
      H1     9.05336    1.38407   15.11778
       H     4.76094   -2.71791    8.58834
       O     3.98121   -3.24824    8.73322
      H1     4.29123   -3.82137    9.45460
       H     3.08510   -3.82560   11.93900
       O     3.97658   -3.89118   11.60533
      H1     4.38424   -3.26583   12.21048
       H     8.92945    1.14237    6.33745
       O     8.24197    0.44530    6.26996
      H1     7.95380    0.38740    5.30904

