180
frame 6 | Written by MDAnalysis XYZWriter (release 2.4.3)
       H     5.98114   -0.02168    7.11865
       O     6.20567   -0.89389    6.75239
      H1     5.80250   -1.46752    7.44502
       H    -0.36179   -0.47835    5.75564
       O     0.16880   -0.50446    4.93583
      H1    -0.40185   -1.14214    4.44597
       H    -0.49228    5.04780    6.53770
       O    -0.27184    4.05202    6.43568
      H1     0.68742    4.24650    6.48608
       H    -0.40268   -3.01488    6.69167
       O     0.46432   -3.49499    6.66911
      H1     1.09162   -2.80105    6.58052
       H     6.13896    2.82178   11.05557
       O     5.58679    2.04619   11.07187
      H1     5.20838    2.19524   11.97147
       H     5.67665   -2.25185    2.98896
       O     5.06057   -2.53044    2.27993
      H1     5.58732   -2.47370    1.48696
       H     8.38791   -0.76001   13.30968
       O     9.29458   -0.52859   13.30050
      H1     9.32126    0.38217   12.97386
       H     1.79789    1.45256    7.51042
       O     1.55659    1.54189    8.44844
      H1     1.51760    2.52513    8.43518
       H     8.73996    3.38318   11.59175
       O     9.54506    2.89068   11.79115
      H1     9.51672    2.26639   11.06069
       H     7.25666    3.36792    4.89643
       O     7.45109    2.57169    4.35196
      H1     8.12443    2.10282    4.86309
       H     9.70034   -2.47060   10.35026
       O    10.29909   -1.83581   10.74292
      H1     9.70573   -1.22279   11.24666
       H     3.61768   -1.34796   13.57969
       O     3.71800   -0.88771   14.44186
      H1     2.85925   -0.92370   14.90161
       H     4.61641    5.30133   10.66827
       O     5.23210    5.56817   10.02988
      H1     4.78957    5.38959    9.14459
       H     0.53040    4.03565    9.13935
       O     1.46804    4.38517    9.10774
      H1     1.54464    4.80812    9.94947
       H     6.67000    0.72519   10.50607
       O     6.87056   -0.21758   10.58794
      H1     6.64646   -0.40174   11.53153
       H     4.19911    3.43254    7.63486
       O     4.06332    4.39224    7.79920
      H1     3.16717    4.32286    8.12691
       H    -0.26161    0.19342    8.30009
       O    -1.07046   -0.25902    8.27573
      H1    -1.49638   -0.02542    9.13934
       H     0.80164    0.82879   11.68930
       O     1.19952    0.28597   11.00648
      H1     1.24454    0.87925   10.23488
       H     1.75153    0.57050    5.39022
       O     2.18851    1.40285    5.49150
      H1     3.03877    1.10598    5.06251
       H    11.42093   -0.94982    5.68999
       O    10.56879   -0.61237    5.96215
      H1     9.99065   -0.53599    5.15880
       H     5.79067   -0.81235   13.75731
       O     6.53964   -1.08717   13.17008
      H1     6.57835   -2.05277   13.43615
       H     3.32923   -2.97904    3.53626
       O     2.54300   -2.75605    4.03783
      H1     2.10404   -3.53876    4.39857
       H     7.63368   -5.54657    5.45256
       O     7.44228   -4.80386    4.87272
      H1     8.24202   -4.69633    4.35184
       H     6.46218   -2.03248    5.26547
       O     6.66374   -2.35562    4.35893
      H1     7.07192   -3.20097    4.53838
       H     5.11459   -6.67601    2.17439
       O     5.58197   -5.84491    2.33048
      H1     4.89867   -5.18658    2.42090
       H    10.96499    3.93553    5.07831
       O    11.33121    4.00745    4.14669
      H1    12.02368    3.33486    4.15538
       H    10.15607    5.26284    7.28621
       O     9.93046    4.66090    6.49002
      H1    10.37883    3.85027    6.74295
       H     3.25801    3.59808    1.92210
       O     3.95647    4.24487    2.05266
      H1     4.24820    4.14906    2.95744
       H     4.98287    1.87105    6.33598
       O     5.19284    2.09315    7.27962
      H1     6.15111    2.39123    7.28939
       H     1.37132    2.80196    4.35195
       O     1.19537    3.42732    3.63506
      H1     1.27958    2.84381    2.90703
       H     4.73914   -4.36695    7.50568
       O     3.76944   -4.40636    7.43294
      H1     3.68792   -5.28651    7.84663
       H    10.81721    1.23171    6.33066
       O    11.15855    2.12501    6.32478
      H1    11.75806    2.18129    7.06005
       H     2.53951   -2.86980   11.35927
       O     2.40455   -2.26868   12.09170
      H1     1.88411   -1.56235   11.77387
       H     0.45417   -0.28179    1.96231
       O     0.92423    0.47490    2.27497
      H1     0.88594    0.38337    3.22406
       H    10.87318    0.85222    9.71576
       O     9.90028    0.97795    9.66423
      H1     9.55002    0.11761    9.82376
       H     2.08543   -2.81128    9.26351
       O     2.84475   -3.20150    9.66172
      H1     3.37075   -3.45211    8.88443
       H     3.96673    1.53576   13.76772
       O     3.65878    1.69304   12.85813
      H1     3.22831    0.87118   12.59921
       H     7.97647   -6.46713    8.63541
       O     7.30477   -6.07646    9.24551
      H1     7.71067   -5.15181    9.20117
       H     9.24947   -1.83657    6.63274
       O     8.47637   -2.42005    6.89715
      H1     7.67496   -1.86718    6.83323
       H     2.41600   -0.68611    8.23945
       O     2.18391   -1.18833    7.48535
      H1     3.05631   -1.46467    7.14479
       H     5.17203    7.11955    7.05805
       O     4.26988    6.92068    7.46257
      H1     4.28229    5.96183    7.35836
       H     6.88558   -2.86687    9.47125
       O     7.80926   -3.27672    9.38982
      H1     8.02757   -2.94962    8.52570
       H     1.54145   -3.91563    1.20102
       O     0.99274   -3.47268    1.85799
      H1     1.60849   -3.19759    2.55330
       H     4.78951   -6.32392    5.93881
       O     5.51574   -6.33381    6.58112
      H1     5.19516   -6.86040    7.33713
       H     2.28972   -7.49672    5.15812
       O     3.03796   -6.96802    5.26923
      H1     2.67061   -6.11966    5.55157
       H     3.95236   -0.81180    2.18948
       O     3.66237    0.03399    1.93840
      H1     2.73503   -0.19884    2.07808
       H     9.90621    3.75831    3.13871
       O     9.29694    3.34681    2.50212
      H1     8.49621    3.24747    2.87965
       H     6.50992   -4.33209   13.55851
       O     5.80594   -3.75336   13.18576
      H1     5.93561   -4.01961   12.25286
       H     7.96125   -0.49771    4.23768
       O     8.67811    0.11864    4.05740
      H1     8.47859    0.44840    3.20989
       H     6.28930    1.41676    1.26033
       O     6.44471    0.96137    0.42134
      H1     7.41569    1.02938    0.22061
       H    12.68210    1.39246    5.15095
       O    13.23585    1.68261    4.40005
      H1    12.86302    1.20061    3.65788
       H     3.78750    5.46550    5.04123
       O     4.66303    5.04040    4.77300
      H1     5.26127    5.05348    5.54095
       H     7.33968    3.47344    9.42950
       O     7.30546    3.80655   10.33226
      H1     6.63570    4.48648   10.12819
       H    10.37647   -4.67549    7.51546
       O    11.16608   -4.38023    7.08487
      H1    10.88269   -4.24331    6.11490
       H     8.29516    5.32443    6.08414
       O     7.45069    5.05753    5.67408
      H1     7.34047    5.75264    4.92369
       H     4.36145   -2.26136    9.82823
       O     5.09987   -1.89342    9.28716
      H1     5.54175   -1.19662    9.82265
       H    10.52798   -3.88137    3.53673
       O     9.97375   -4.56793    3.11501
      H1     9.90410   -4.21668    2.23416
       H     5.77358   -5.73764   10.41606
       O     5.38668   -5.02632   10.98900
      H1     4.61880   -5.56078   11.33644
       H     5.81588    1.34960    4.35522
       O     4.86899    1.12563    4.36603
      H1     4.77245    0.78305    3.46044
       H     8.44584    2.00126    8.03227
       O     8.02830    2.59523    7.41828
      H1     8.74387    3.19444    7.33622

