180
frame 3 | Written by MDAnalysis XYZWriter (release 2.4.3)
       H     8.17480  -16.11335    4.57209
       O     8.03525  -15.54547    5.31686
      H1     8.79887  -15.01433    5.29260
       H     2.96897  -18.61090   -1.81914
       O     3.29539  -19.53478   -1.54996
      H1     2.48921  -20.07302   -1.46367
       H     6.10280  -19.08913    6.04256
       O     5.79170  -18.36750    6.53956
      H1     6.52804  -18.22028    7.08815
       H     5.79162  -13.77736   -3.82835
       O     4.89447  -13.78736   -3.45887
      H1     4.62960  -12.93427   -3.97411
       H     7.97257  -12.97467    3.25119
       O     8.95392  -12.88247    3.15597
      H1     9.06262  -11.87802    3.22236
       H    -0.93604  -18.99714   -1.06347
       O    -1.03705  -19.25188   -0.12644
      H1    -1.59110  -20.02150   -0.18211
       H    -1.75248  -14.91874    2.09620
       O    -2.11355  -14.04275    1.84054
      H1    -2.54863  -13.79968    2.68879
       H    -3.68626  -15.68336   -5.73254
       O    -3.87732  -15.83369   -4.78875
      H1    -2.97019  -15.85784   -4.46604
       H     0.99389  -12.59197   -4.59885
       O     1.52791  -12.88904   -3.82411
      H1     1.01862  -13.58902   -3.39740
       H     2.16259  -14.07882    7.34891
       O     1.21004  -14.02975    7.30778
      H1     1.03151  -14.26128    6.36506
       H     0.04953  -17.48021    7.00193
       O     0.56856  -18.21970    6.63329
      H1     0.20063  -18.55475    5.88301
       H    -2.12750  -13.43621   -1.40520
       O    -2.61500  -13.78951   -2.17088
      H1    -2.84176  -12.94071   -2.61512
       H     9.20555  -15.01895   -4.61415
       O    10.04476  -15.09636   -5.06032
      H1    10.41271  -14.18599   -4.85996
       H     0.83038  -12.86114    2.13574
       O     0.53767  -13.63716    1.78023
      H1    -0.44533  -13.67659    2.05284
       H    -1.39914  -16.53207   -3.03379
       O    -1.33608  -15.93970   -3.75374
      H1    -1.61122  -15.07730   -3.38312
       H    -1.49509  -12.32394    3.83187
       O    -1.01030  -11.60931    3.31802
      H1    -1.20823  -10.84882    3.93028
       H    10.72043  -17.18742    0.25762
       O    10.22402  -16.82426    1.06961
      H1    10.07543  -15.88983    0.83208
       H     6.74688  -16.04097   -3.28271
       O     7.09915  -15.52611   -4.06685
      H1     6.46955  -15.89538   -4.70917
       H     3.40494   -7.62972    0.33206
       O     3.66579   -8.34014    0.96562
      H1     3.99146   -7.80861    1.68241
       H     1.13647  -17.33492   -2.70660
       O     2.01798  -17.16939   -2.28280
      H1     2.46778  -16.63173   -2.96468
       H     2.76134  -16.66245   -0.42793
       O     3.02378  -15.86414    0.01238
      H1     2.39005  -15.22773   -0.47649
       H     8.53448  -17.97011    0.62222
       O     7.95573  -18.61109    1.10550
      H1     7.36194  -18.87738    0.34413
       H     5.69914  -17.83365   -1.79022
       O     5.51632  -16.96248   -2.20185
      H1     4.87534  -16.53801   -1.58355
       H     3.46597  -17.89750    4.70806
       O     3.44136  -16.92647    4.56018
      H1     3.90460  -16.49660    5.29069
       H    -2.74693  -18.54827    1.32393
       O    -3.25718  -18.32295    2.15708
      H1    -2.52771  -18.31605    2.78328
       H     2.94913  -14.08598   -7.69684
       O     2.36849  -14.62825   -7.09516
      H1     1.68007  -14.01348   -6.82254
       H    -0.93627  -12.63271   -6.47791
       O    -0.23864  -12.38921   -5.85580
      H1    -0.54419  -11.43131   -5.80367
       H     2.77515   -9.83885    1.55458
       O     2.54920  -10.60396    2.12885
      H1     3.31551  -10.72923    2.68882
       H     8.69555  -18.31348   -3.02820
       O     8.78223  -18.91954   -2.29129
      H1     9.43410  -19.55854   -2.70735
       H     6.67986  -13.67484   -6.97712
       O     6.47389  -14.30079   -7.62782
      H1     6.06233  -14.98697   -7.14548
       H    -1.38700  -12.99321    0.48614
       O    -1.05740  -12.69795   -0.37028
      H1    -0.40661  -13.39417   -0.64589
       H     5.26525  -15.59112    1.60518
       O     5.40123  -15.88431    2.52292
      H1     4.58882  -16.25419    2.82953
       H    -0.85427  -14.38535    4.51155
       O    -0.38225  -13.68291    4.93047
      H1    -0.01417  -13.27001    4.10353
       H     5.92729  -11.66644    3.28563
       O     5.38077  -10.91851    3.42756
      H1     5.43096  -10.53774    2.50691
       H     3.84970  -12.55109   -5.78799
       O     3.94969  -11.66740   -5.36162
      H1     3.08447  -11.47175   -4.94500
       H     3.55257  -14.78093   -3.94824
       O     2.99271  -15.47376   -4.35814
      H1     2.54611  -14.92415   -5.01662
       H     6.09792  -13.98796    4.43556
       O     6.52390  -13.63439    3.62839
      H1     6.47619  -14.38779    3.02918
       H    -0.48303  -17.38881    0.68776
       O    -0.39338  -16.45181    0.52190
      H1     0.47359  -16.33716    0.88067
       H    10.06358  -14.18731   -2.10009
       O     9.23875  -13.99120   -1.68403
      H1     8.65115  -14.68998   -1.90733
       H     6.53058  -16.97946    3.19006
       O     7.47348  -17.40215    3.35448
      H1     7.50386  -17.82235    2.47380
       H     3.90109  -15.57714    7.35978
       O     3.98997  -14.81389    6.75274
      H1     4.98406  -14.85474    6.63239
       H    -0.87830  -11.10421    0.47701
       O    -0.40502  -10.28631    0.62779
      H1    -0.21693  -10.39772    1.58503
       H     1.41443  -13.70702   -0.60744
       O     1.09811  -14.29649   -1.28257
      H1     0.61654  -14.97307   -0.71519
       H     1.04764   -9.19148    3.41014
       O     1.17831   -8.34083    3.82602
      H1     1.07907   -7.74956    3.04310
       H    -3.47198  -16.85268    0.89287
       O    -3.68327  -16.00213    0.39022
      H1    -3.09477  -15.37166    0.81963
       H     9.44987  -10.85619   -1.26321
       O    10.02343  -11.53284   -1.60618
      H1     9.40857  -12.27468   -1.84018
       H     4.82507   -8.43199   -2.44117
       O     4.50263   -9.14376   -3.02551
      H1     4.01978   -9.74324   -2.39607
       H     6.50733   -9.38402    1.01051
       O     6.18482  -10.23714    0.68022
      H1     5.40534   -9.91063    0.26041
       H     9.41366  -13.61907    1.63738
       O    10.07010  -13.99730    0.99045
      H1     9.57598  -13.90985    0.13347
       H    -0.59174  -15.47271   -6.23191
       O    -0.76359  -15.38372   -7.19673
      H1    -1.35374  -14.61427   -7.24494
       H     6.13643  -10.55394   -4.22000
       O     7.04768  -10.88013   -4.08742
      H1     7.07252  -11.18814   -5.04645
       H     2.30450  -18.01963    2.28907
       O     1.80074  -17.15515    2.43452
      H1     2.26720  -16.76417    3.21596
       H     3.47866  -12.19116   -1.98875
       O     3.02021  -11.36755   -1.70504
      H1     2.11661  -11.60701   -2.01042
       H     4.89298  -17.28461   -6.25531
       O     5.11657  -16.36270   -5.97418
      H1     4.26213  -16.01899   -5.56131
       H    -1.62046  -16.55376    4.21980
       O    -1.87032  -15.62425    3.94992
      H1    -2.68770  -15.53151    4.47874
       H    -0.03758  -19.78700    3.41655
       O    -0.36106  -18.86588    3.42026
      H1     0.45478  -18.40004    3.07140
       H    -0.96637  -18.51474   -4.00558
       O    -0.35075  -18.64552   -3.24327
      H1     0.31735  -19.18253   -3.68346
       H     3.83051  -19.58102   -3.18998
       O     3.96530  -19.37578   -4.15797
      H1     4.60492  -18.69469   -4.21767
       H     0.26841   -9.01349   -0.33647
       O     0.32133   -8.12152   -0.84679
      H1    -0.59265   -7.80496   -0.88378
       H     8.02973  -18.11203    5.11658
       O     8.64215  -18.50692    5.81075
      H1     8.63788  -17.89483    6.54116

