180
frame 1 | Written by MDAnalysis XYZWriter (release 2.4.3)
       H    -9.61424   11.84528  -10.30333
       O    -8.93889   11.14346  -10.16419
      H1    -8.33275   11.35185  -10.91449
       H   -11.53126    8.05552  -10.89564
       O   -11.15146    7.33382  -10.34583
      H1   -10.66359    7.95948   -9.81858
       H    -5.68181   18.87440   -7.92521
       O    -4.87485   19.34996   -8.28206
      H1    -4.63125   19.82532   -7.50297
       H    -3.68948   12.29658   -6.46841
       O    -2.93240   11.70788   -6.49334
      H1    -2.14693   12.16208   -6.93442
       H    -4.74360   16.19759   -5.29584
       O    -3.93174   16.47608   -4.82744
      H1    -3.94077   15.85784   -3.98748
       H    -8.03364   11.88901   -8.74497
       O    -7.52924   12.42027   -8.13731
      H1    -7.25545   11.82675   -7.42636
       H   -12.79679   18.54572   -3.82243
       O   -12.33206   17.68809   -3.61989
      H1   -12.05849   17.85249   -2.64606
       H    -6.72177   16.98584   -6.28083
       O    -6.48783   16.27123   -5.69742
      H1    -7.12452   15.55338   -5.70176
       H   -12.51960    9.87825  -12.42565
       O   -12.63949    9.71515  -11.46838
      H1   -12.90221   10.62497  -11.20625
       H    -5.93091   14.68269  -12.96735
       O    -4.95328   14.56770  -12.85221
      H1    -4.80594   13.79937  -13.39686
       H   -14.71729   10.67239   -8.45329
       O   -14.69275   11.46734   -7.96213
      H1   -15.55521   11.92896   -8.20736
       H   -16.57016   16.62318   -6.26546
       O   -16.11263   15.91117   -5.87593
      H1   -16.85268   15.52120   -5.32358
       H    -8.89194    8.47164   -7.44634
       O    -8.42524    7.91610   -6.78346
      H1    -9.16080    7.30740   -6.50541
       H    -7.24890   15.29580   -0.79289
       O    -6.49626   15.72529   -1.23123
      H1    -6.91884   15.95852   -2.06527
       H    -6.53118    5.73448   -8.25158
       O    -6.95652    6.39360   -8.83037
      H1    -7.61390    6.82629   -8.26033
       H    -6.38905   12.79980   -9.43042
       O    -5.65220   13.21670   -9.92747
      H1    -5.94945   12.96325  -10.82198
       H   -11.65922   13.80526   -3.09870
       O   -10.72181   13.92821   -2.78134
      H1   -10.36022   13.01490   -2.76676
       H    -9.85054   10.94749   -1.75165
       O   -10.75819   11.08068   -2.12742
      H1   -11.09771   10.21221   -2.45229
       H    -5.33653   14.96243   -2.06018
       O    -4.62607   14.71235   -2.72991
      H1    -4.22211   14.06886   -2.11797
       H    -7.82719   18.64524   -8.07150
       O    -7.30994   17.99584   -7.59934
      H1    -7.69550   17.13754   -7.81021
       H   -11.87654    9.60114   -6.45411
       O   -11.72558    8.75942   -5.94362
      H1   -11.00288    9.00560   -5.36087
       H   -11.23968   17.04435   -6.96431
       O   -10.29570   17.16170   -6.93751
      H1   -10.04784   17.20285   -5.99358
       H    -3.27412   18.50348   -8.44394
       O    -2.61106   17.78845   -8.36070
      H1    -2.96888   17.03701   -8.77982
       H   -10.56630   14.17617  -10.49478
       O   -10.81736   13.51257   -9.87021
      H1   -10.80667   13.93790   -9.00477
       H    -9.27044   15.98701  -11.83372
       O    -8.90707   15.21771  -11.33108
      H1    -8.39999   15.61302  -10.61351
       H    -1.72776   15.40386   -6.48100
       O    -2.24338   14.64342   -6.16835
      H1    -3.14688   15.02860   -6.17339
       H   -13.01810   15.09487   -7.61448
       O   -12.68593   15.97338   -7.92293
      H1   -13.22038   16.61522   -7.48196
       H    -8.34413   11.00385   -4.03493
       O    -7.84296   11.67640   -3.48949
      H1    -6.94326   11.25913   -3.42163
       H    -7.85645   14.41429  -12.46112
       O    -7.42481   14.32922  -13.33307
      H1    -7.57775   15.20551  -13.75306
       H   -15.20847   16.14044   -4.13721
       O   -14.65844   16.09611   -3.38093
      H1   -13.93136   16.69631   -3.68660
       H   -16.33744   15.12080   -8.72124
       O   -16.02309   14.37697   -8.21062
      H1   -15.92387   14.78261   -7.34113
       H    -4.92310   16.36388  -10.40063
       O    -4.47653   15.69221   -9.82218
      H1    -4.83945   14.81204   -9.98998
       H    -8.98592   14.43770   -4.33806
       O    -8.17375   14.12966   -4.73771
      H1    -8.11797   13.35081   -4.15901
       H    -7.63816   14.02265   -8.39756
       O    -7.41194   14.92004   -8.70148
      H1    -6.44687   14.88114   -8.80013
       H   -12.26937   19.00311   -6.06283
       O   -11.93720   19.90221   -6.38021
      H1   -11.09504   19.96323   -5.83883
       H   -11.82472   16.27874  -14.15755
       O   -11.43373   15.56462  -13.61063
      H1   -11.95172   15.53626  -12.80979
       H   -10.50825   15.47072   -3.64781
       O   -10.07230   16.27060   -3.93711
      H1   -10.70351   16.98495   -3.82481
       H   -10.91741    6.95047   -5.96981
       O   -10.44078    6.20275   -5.57824
      H1   -10.54159    6.36025   -4.63858
       H   -12.54226   16.83440   -9.50996
       O   -12.13700   17.32516  -10.23654
      H1   -12.65596   17.00557  -10.99089
       H    -9.18647   13.82991   -6.68492
       O   -10.05017   14.22785   -6.95313
      H1    -9.83911   15.14908   -6.94621
       H    -3.77964   11.34520   -8.88841
       O    -3.51379   10.64277   -9.45473
      H1    -4.37229   10.21743   -9.67967
       H    -5.16248   11.41045   -2.18335
       O    -4.86492   11.40527   -3.11231
      H1    -4.01918   10.94124   -3.06040
       H    -8.68236    8.73094   -5.26789
       O    -9.09901    9.34987   -4.61102
      H1    -8.82400    9.08574   -3.72276
       H    -7.57439   12.01628  -12.71033
       O    -6.90733   11.73301  -12.03612
      H1    -6.22184   11.40911  -12.68439
       H   -10.68949    9.79782   -8.36782
       O    -9.99819    9.26407   -8.77948
      H1    -9.65719    9.88588   -9.44262
       H    -9.63503   18.75094  -12.03366
       O   -10.07453   17.88194  -12.13284
      H1   -10.71636   17.89970  -11.42101
       H   -10.70310   14.92004   -1.34967
       O   -11.09098   15.03729   -0.42920
      H1   -11.44242   15.99995   -0.58513
       H   -13.68916   12.28206   -9.39069
       O   -13.17448   12.23807  -10.24726
      H1   -12.50253   12.92964  -10.13521
       H    -4.73813   13.39024   -4.65249
       O    -5.17140   13.19231   -5.48585
      H1    -6.08083   13.16655   -5.23874
       H    -3.28878   13.67810  -11.19530
       O    -2.78820   12.90650  -11.04477
      H1    -3.42823   12.28962  -10.66462
       H   -14.50312   11.12164   -5.87528
       O   -14.57164   11.23480   -4.92985
      H1   -14.55326   10.24956   -4.73365
       H   -12.82085   13.78222   -5.59486
       O   -12.65328   13.59660   -6.49336
      H1   -11.74543   13.87740   -6.52408
       H   -13.64282    8.52983   -5.57856
       O   -14.40266    8.51054   -5.01895
      H1   -15.10212    8.65160   -5.72154
       H   -11.69359   11.89003   -7.05734
       O   -11.71620   11.01043   -7.50165
      H1   -11.99134   11.31810   -8.39717
       H   -14.38398   18.29464   -7.16935
       O   -13.87414   17.87553   -6.48148
      H1   -14.60042   17.30767   -6.21360
       H    -9.57411   15.24591    0.34090
       O    -8.61508   15.27365    0.49559
      H1    -8.58117   14.80510    1.35698
       H    -6.19611   10.04865   -5.91456
       O    -6.82012   10.23317   -6.57513
      H1    -7.11726    9.33970   -6.85649
       H   -13.52086   10.59558   -0.84921
       O   -13.45438   11.55432   -0.88008
      H1   -12.55852   11.67384   -1.29821
       H    -5.88727   18.63551  -11.29770
       O    -5.76187   17.77934  -11.80587
      H1    -4.80457   17.80320  -12.06623
       H   -13.92942   14.36351   -3.64681
       O   -13.16890   13.77479   -3.93722
      H1   -13.63902   12.97955   -4.21428

