180
frame 4 | Written by MDAnalysis XYZWriter (release 2.4.3)
       H   -12.80120  -17.24857   -6.95575
       O   -13.06473  -16.30171   -7.37935
      H1   -12.21286  -15.88824   -7.08171
       H   -17.80774  -17.56418    7.58997
       O   -18.17341  -17.34355    6.70199
      H1   -18.53592  -18.18205    6.36742
       H   -16.61495   -7.23271   -3.08141
       O   -16.03978   -6.98658   -3.80320
      H1   -16.15485   -7.76212   -4.39810
       H   -15.01762  -13.68237   -7.84884
       O   -15.81516  -13.76916   -7.36759
      H1   -15.88109  -14.72791   -7.13980
       H   -11.12813  -14.13510    0.87577
       O   -11.53411  -13.32888    1.20528
      H1   -11.25306  -13.21794    2.17709
       H   -13.45785  -17.96163    5.97601
       O   -13.23478  -17.95446    6.93048
      H1   -13.03673  -17.03222    7.01069
       H   -12.94811  -13.16537   -9.07228
       O   -13.75934  -13.70437   -9.23550
      H1   -13.40897  -14.53487   -9.50383
       H   -12.05421  -12.06064   -1.76981
       O   -11.84070  -12.47691   -2.65906
      H1   -12.16420  -13.37465   -2.61846
       H    -9.64148  -14.26061   -2.29040
       O    -9.43934  -15.17202   -2.07875
      H1   -10.06689  -15.40826   -1.38840
       H   -14.47001  -18.56951    4.09312
       O   -14.13293  -19.40529    4.41661
      H1   -14.82938  -19.86225    4.91982
       H   -18.20041  -13.59787   -1.79836
       O   -17.80664  -13.93556   -0.96581
      H1   -18.57216  -14.08492   -0.40906
       H   -16.89297  -13.91093    6.12225
       O   -17.66025  -13.62763    6.73805
      H1   -17.64435  -12.65074    6.62769
       H   -13.23326  -10.77871    0.36767
       O   -14.00581  -10.75783    0.99008
      H1   -14.75249  -10.97491    0.41785
       H   -13.02325   -9.07885   -3.29723
       O   -13.09191   -9.29468   -4.25168
      H1   -14.04217   -9.13012   -4.37090
       H   -16.04857   -8.67927    2.66572
       O   -15.57711   -8.48793    1.82101
      H1   -14.88943   -9.16503    1.73361
       H   -11.86143  -15.66154    3.15043
       O   -11.13951  -16.19736    3.52234
      H1   -11.35737  -16.24127    4.45733
       H    -9.42876  -14.90518   -6.90147
       O   -10.37579  -14.82120   -7.08859
      H1   -10.60865  -14.15457   -6.44639
       H   -19.49136  -13.55245   -4.29493
       O   -19.06737  -13.14924   -3.53225
      H1   -19.01858  -12.24145   -3.79612
       H    -8.86583  -16.59916   -3.56976
       O    -8.98913  -17.15868   -4.33165
      H1    -9.25715  -16.43732   -4.95897
       H   -12.91236  -11.31352   -8.28276
       O   -12.12529  -11.40803   -8.79924
      H1   -11.45296  -11.24689   -8.09186
       H   -19.73847  -16.10359   -7.06063
       O   -19.09998  -15.43840   -6.69924
      H1   -18.50462  -15.92575   -6.14274
       H   -14.89459  -13.07016    0.00423
       O   -15.27848  -12.72528   -0.85497
      H1   -16.24907  -12.85089   -0.70375
       H   -11.74613  -12.54411   -4.56335
       O   -11.57196  -12.78972   -5.48716
      H1   -12.38931  -12.49201   -5.93945
       H   -18.47867  -14.08181   -8.49896
       O   -17.83249  -13.74134   -9.15341
      H1   -17.08416  -13.73244   -8.50010
       H   -16.80770  -16.38420   -2.52227
       O   -17.36100  -16.85445   -3.20200
      H1   -16.92521  -17.72606   -3.04788
       H   -19.33076  -10.61765    1.43789
       O   -18.94675  -11.23294    0.81636
      H1   -19.57115  -11.31227    0.07851
       H   -12.30250  -19.48455   -6.27999
       O   -11.77515  -18.90257   -6.87831
      H1   -10.87139  -19.15580   -6.62566
       H   -16.94228  -11.30276    1.39501
       O   -16.41529  -11.75562    2.06539
      H1   -17.11369  -11.99160    2.70477
       H   -10.72540  -11.38532   -0.06334
       O   -11.40406  -10.70831   -0.20142
      H1   -10.90509  -10.00878   -0.63700
       H   -14.63242  -15.68027    2.77321
       O   -14.56914  -15.71500    3.77505
      H1   -14.71467  -14.77317    3.93056
       H   -19.38417  -18.01997   -8.61769
       O   -18.83573  -18.74853   -8.32995
      H1   -18.79619  -18.77510   -7.34892
       H   -14.67960  -14.33553   -3.57344
       O   -14.07769  -14.39713   -2.79283
      H1   -14.40647  -13.58133   -2.29994
       H   -12.98134  -12.57809    5.88755
       O   -13.29746  -13.31903    5.34460
      H1   -12.86538  -14.09069    5.69115
       H   -14.97354  -15.37524   -1.63258
       O   -15.69569  -15.93848   -1.30768
      H1   -16.31004  -15.23834   -0.94897
       H   -15.01196  -12.92683    4.82121
       O   -15.84086  -13.38331    4.69101
      H1   -16.50376  -12.70261    4.60278
       H   -14.62822  -17.55188   -0.85977
       O   -14.43589  -18.48265   -0.78672
      H1   -14.18420  -18.72673   -1.73619
       H   -17.02518  -18.40902    3.19176
       O   -17.50031  -18.97532    2.50737
      H1   -16.81352  -19.54004    2.21607
       H   -18.09970   -8.41483   -1.09029
       O   -17.32414   -8.08742   -0.56596
      H1   -17.21369   -8.75351    0.13372
       H   -15.76511  -10.33523    4.03076
       O   -16.36512   -9.65854    4.40371
      H1   -15.96664   -9.47077    5.29509
       H   -13.03898  -18.12348    0.27061
       O   -12.62941  -17.70977    1.08286
      H1   -11.92181  -18.31629    1.17316
       H   -17.29213  -14.75347  -11.92019
       O   -17.85471  -15.41753  -11.43423
      H1   -17.62814  -15.02521  -10.56396
       H   -11.37612  -16.54641    0.66905
       O   -10.63230  -15.86457    0.49806
      H1    -9.84297  -16.34736    0.90138
       H   -18.13381  -13.17443    3.38795
       O   -18.28326  -12.42857    3.96968
      H1   -19.24734  -12.45722    4.08420
       H   -14.60604  -16.94205   -9.61184
       O   -13.84773  -16.59426  -10.12812
      H1   -13.10480  -16.65992   -9.50069
       H   -12.85376  -11.48113    3.63561
       O   -13.37560  -10.65893    3.62307
      H1   -13.76014  -10.79862    2.71331
       H   -13.67826  -18.77533   -3.55300
       O   -13.93357  -19.56770   -3.08054
      H1   -14.81933  -19.80852   -3.47326
       H   -15.77695  -12.09226   -3.86028
       O   -15.24082  -11.29828   -3.73436
      H1   -14.92224  -11.37302   -2.83011
       H   -14.47985  -10.64620   -7.54101
       O   -14.06287  -11.16067   -6.75575
      H1   -14.36287  -10.70146   -5.95988
       H   -17.97684  -11.55960   -7.62313
       O   -17.54636  -10.73573   -7.30149
      H1   -17.49011  -10.32176   -8.16765
       H   -16.97760  -17.73085   -9.74991
       O   -16.47178  -16.92136   -9.58644
      H1   -16.89563  -16.41652  -10.29527
       H   -15.85375  -16.42419    4.47528
       O   -16.56648  -17.16471    4.42269
      H1   -16.91544  -17.12963    5.31614
       H   -13.64429  -13.65564    1.29260
       O   -14.54814  -13.94616    1.40680
      H1   -15.08833  -13.24165    1.83458
       H   -17.81136  -15.91970    3.37701
       O   -18.37964  -15.18194    3.21413
      H1   -19.22206  -15.50227    3.50088
       H   -14.90012  -16.64983   -7.04215
       O   -15.81848  -16.42100   -6.90271
      H1   -16.23172  -16.50097   -7.77104
       H   -19.19535  -16.83259   -0.64852
       O   -19.35005  -17.58887   -1.23769
      H1   -18.71768  -17.44838   -2.01696
       H   -16.56173   -9.32297   -6.08255
       O   -15.89285   -8.66683   -5.86104
      H1   -16.14927   -7.95961   -6.48720
       H   -18.02844  -17.44339   -4.72465
       O   -17.86331  -17.84870   -5.58187
      H1   -17.00239  -17.40880   -5.78139
       H   -11.07470  -15.91558   -8.65478
       O   -11.01428  -15.97491   -9.62761
      H1   -10.22993  -15.46048   -9.91414
       H   -13.30706  -16.14741   -3.38630
       O   -12.92634  -16.93908   -3.75998
      H1   -11.98821  -16.78498   -3.73165
       H   -17.17496  -13.61536   -3.84743
       O   -16.27483  -13.83051   -4.15819
      H1   -16.42875  -13.77875   -5.13209

