180
frame 8 | Written by MDAnalysis XYZWriter (release 2.4.3)
       H    12.23879  -16.45588   15.65805
       O    11.64828  -16.75459   16.33565
      H1    10.94791  -16.13061   16.32075
       H     9.57351  -14.91394   15.13174
       O     9.30109  -15.66151   15.72535
      H1     9.17809  -15.13447   16.54783
       H    16.03976  -14.01327    8.15340
       O    16.13794  -14.87279    7.71905
      H1    15.33674  -14.97001    7.20105
       H    12.21274  -13.57922   18.44285
       O    11.59650  -13.32197   19.18711
      H1    12.10596  -13.22813   20.06642
       H    16.10921  -16.88216   13.89811
       O    15.41348  -17.55920   14.11752
      H1    14.71584  -17.21839   13.52145
       H    11.73918   -5.20421   14.67701
       O    12.64363   -5.50562   14.39567
      H1    12.42057   -6.46608   14.25581
       H    18.32498   -7.45562   12.31206
       O    18.95200   -7.33017   11.60489
      H1    18.36018   -6.89640   10.98591
       H    16.01068  -13.39396   10.93223
       O    15.37471  -14.10668   11.08550
      H1    15.78550  -14.81717   10.58618
       H    14.89255  -11.15858   18.66084
       O    14.31523  -11.52591   17.96647
      H1    14.82823  -11.19430   17.20448
       H    18.61826   -4.08496   14.34351
       O    17.96487   -4.40960   13.67105
      H1    18.44664   -4.43990   12.82097
       H    17.05959  -13.69195   17.00295
       O    17.17900  -13.21005   17.81561
      H1    16.96346  -12.34280   17.51544
       H    11.31802   -9.44623    9.76727
       O    11.27278   -9.70562    8.82450
      H1    10.58348  -10.35152    8.70489
       H    13.59691  -12.20853   12.54133
       O    13.72158  -12.51033   13.51014
      H1    13.59922  -13.49173   13.50830
       H    14.88599  -17.19444   15.98475
       O    14.59147  -16.57708   16.69587
      H1    15.47106  -16.16533   16.87450
       H     9.37267   -7.50404   16.97580
       O    10.27677   -7.19304   16.80672
      H1    10.55914   -7.03613   17.68530
       H    10.56753  -16.15611   11.62565
       O    11.52595  -16.05642   11.89442
      H1    11.95476  -15.96972   10.96388
       H    10.72110   -6.05900   11.08842
       O    10.55283   -6.89403   10.68932
      H1    10.52621   -7.45718   11.51256
       H    17.53592   -7.23176   17.27162
       O    17.46116   -8.01431   17.88395
      H1    16.52913   -7.86335   18.13315
       H    12.64740  -14.55764   14.39605
       O    13.38390  -15.11868   14.20038
      H1    13.85724  -15.00203   15.00934
       H    15.21352   -6.74886   14.09196
       O    15.33352   -6.69560   13.13695
      H1    15.77918   -5.86666   12.94241
       H    16.89041   -7.65299   13.82839
       O    17.55385   -8.40575   13.82884
      H1    17.10962   -9.24092   13.79529
       H    10.21657  -13.45187   13.29195
       O    10.73635  -14.15232   13.72244
      H1    10.92750  -14.73824   12.96885
       H     9.36459  -11.25516   17.16035
       O     8.89567  -11.32476   16.31631
      H1     8.09232  -10.87759   16.47768
       H    14.00224   -4.44633   13.12477
       O    14.27062   -3.96968   12.29359
      H1    13.38203   -4.07347   11.84085
       H    19.10097  -10.63990    9.15389
       O    18.81890  -10.80698    8.21786
      H1    18.38545   -9.93968    8.04638
       H    18.65314  -11.24093   10.94536
       O    19.58651  -10.92847   10.81289
      H1    19.67166  -10.31465   11.64370
       H    16.21169  -16.23391    9.04590
       O    16.31198  -16.44120   10.00741
      H1    15.59429  -17.06430   10.25623
       H    13.42623  -14.58623    9.93536
       O    12.82052  -15.33800    9.68180
      H1    13.47201  -16.11793    9.72474
       H    17.90913  -18.91975   11.26010
       O    17.73886  -19.42974   10.46080
      H1    16.88948  -19.81439   10.68941
       H    12.08287   -3.74886   17.33455
       O    11.38900   -4.33355   17.66847
      H1    11.83816   -4.92350   18.31539
       H    18.43240  -17.73160   15.25715
       O    17.92304  -17.11405   15.78665
      H1    18.50654  -17.00657   16.53792
       H    16.44913  -10.67334   15.56339
       O    16.32734  -10.64543   16.59133
      H1    16.82946   -9.81976   16.87282
       H    16.38639  -15.77294   12.36455
       O    17.21251  -15.81788   12.88007
      H1    17.00056  -15.11597   13.53594
       H    15.24059  -11.33088   13.76307
       O    16.12294  -10.95788   13.58049
      H1    16.27741  -11.26899   12.66361
       H    14.70283   -8.02400   10.73760
       O    15.27779   -8.80808   10.97017
      H1    15.31130   -8.74032   11.95356
       H    10.13389  -18.09301   15.38228
       O     9.61344  -18.79887   14.99328
      H1     8.99633  -18.28282   14.42134
       H    11.48520   -7.81763   15.69706
       O    12.31425   -8.17499   15.37977
      H1    12.09757   -9.05933   15.03049
       H    17.42235   -5.26724   16.72671
       O    18.07088   -5.91124   16.26360
      H1    17.71317   -5.86961   15.36115
       H     9.27347  -11.63308   14.57473
       O     9.54549  -11.52974   13.61699
      H1     8.71383  -11.73175   13.17745
       H    11.12316   -9.77663   12.56121
       O    10.76528   -9.32470   11.80761
      H1     9.98156   -9.83603   11.63309
       H    16.34273   -3.56769   18.67448
       O    16.44263   -3.80282   17.75919
      H1    16.78283   -3.04099   17.34292
       H     5.84848  -12.73558   18.98466
       O     6.45036  -12.32437   18.31529
      H1     7.29813  -12.73833   18.45059
       H    16.42202   -7.36758   10.57947
       O    16.80212   -6.66343   10.05099
      H1    16.68277   -7.04608    9.17424
       H    16.39618  -11.47580    9.82532
       O    16.59284  -11.32293   10.80394
      H1    16.27138  -10.43535   10.92605
       H    13.01841  -17.97710   17.18468
       O    13.13133  -18.91996   17.30730
      H1    14.06666  -19.01141   17.52380
       H    12.44909   -8.94482   17.32175
       O    12.24066   -9.51375   18.10327
      H1    12.89733  -10.20818   17.96961
       H    10.16140  -12.77094   10.23519
       O    10.64033  -12.28206    9.56596
      H1    10.42675  -12.78422    8.78720
       H    17.43416  -13.49840   14.93273
       O    16.55084  -13.92017   14.90932
      H1    15.97514  -13.34875   14.34310
       H    13.68783  -10.70221   10.37529
       O    13.40509  -11.51511   10.72185
      H1    12.75849  -11.72338   10.01750
       H    15.40627   -6.71699   16.39270
       O    15.09360   -7.34867   15.76287
      H1    14.14045   -7.21290   15.70042
       H    10.18259  -10.56914   18.57199
       O     9.85124  -11.44400   18.72215
      H1    10.64130  -11.99897   18.76138
       H    12.59733  -11.23373   14.18512
       O    11.98875  -10.48082   14.11093
      H1    11.05736  -10.87515   13.96999
       H    15.61159  -11.27855    8.00572
       O    16.22053  -12.01159    8.21473
      H1    17.04062  -11.76119    7.77647
       H     9.02057  -15.12366   19.08277
       O     8.90381  -14.60884   18.19819
      H1     9.76567  -14.10234   18.36782
       H    18.65553  -17.18620   12.91743
       O    19.07596  -17.89377   12.37221
      H1    19.64189  -18.23282   13.08821
       H    15.32640   -8.88070   19.02409
       O    14.83151   -8.14833   18.71223
      H1    13.97803   -8.67691   18.71888
       H    13.49298  -14.79552   17.26394
       O    13.10098  -13.88512   17.10341
      H1    13.75345  -13.24292   17.54488
       H    10.80395  -18.71959   17.62242
       O     9.86744  -18.86820   17.86663
      H1     9.36484  -18.64994   17.05276
       H    14.48239  -18.73399    9.28665
       O    14.20028  -17.94298    9.86510
      H1    13.80146  -18.40520   10.61158
       H    12.23541  -17.67265   12.52858
       O    12.91969  -18.36356   12.35007
      H1    12.54217  -19.15628   12.71817

