180
frame 7 | Written by MDAnalysis XYZWriter (release 2.4.3)
       H   -15.76200   -5.62176    9.87055
       O   -16.38532   -6.38358    9.85816
      H1   -17.16793   -6.03435    9.44070
       H   -14.20212  -11.96106    9.83944
       O   -14.69277  -12.40013    9.16650
      H1   -15.03437  -11.75011    8.60468
       H   -16.66408   -5.13327   -1.32815
       O   -16.80733   -4.26439   -1.63639
      H1   -17.10699   -4.43613   -2.62161
       H   -14.61384  -14.25401   -0.72281
       O   -15.26167  -13.66188   -1.10049
      H1   -16.13325  -14.06347   -1.01871
       H   -16.55093   -7.48043   -1.15554
       O   -16.02728   -6.68882   -0.87766
      H1   -15.33414   -6.75771   -1.49290
       H   -14.81016   -9.87983   -0.06581
       O   -14.73952   -9.88496   -0.98508
      H1   -14.82849  -10.81915   -1.10897
       H   -18.07596   -4.30256   -0.13283
       O   -18.47201   -4.56010    0.72689
      H1   -19.16444   -3.90884    0.99465
       H   -13.46385   -8.34297    8.45454
       O   -14.19296   -8.81840    8.85738
      H1   -14.83683   -8.14621    9.05143
       H   -19.06797  -13.40709    3.26965
       O   -19.39390  -12.62648    2.83144
      H1   -18.82041  -11.87646    3.15429
       H   -10.13617   -9.53391    2.81705
       O   -11.01376   -9.51049    3.20628
      H1   -11.45477  -10.32008    2.84082
       H   -13.55684   -4.12521   -4.51949
       O   -14.49648   -3.80970   -4.37384
      H1   -15.00147   -4.64986   -4.31396
       H   -18.35531  -14.58990    5.69457
       O   -18.86824  -14.18748    6.44945
      H1   -19.23079  -15.00014    6.91245
       H   -11.30988   -4.78882    2.72315
       O   -11.35905   -4.25810    3.55755
      H1   -10.54170   -4.47061    4.06382
       H   -18.08014  -10.23848    9.17990
       O   -17.76577   -9.44804    8.75712
      H1   -17.28871   -9.04732    9.52255
       H   -17.96968  -15.92066    4.23165
       O   -18.12094  -14.96625    4.03177
      H1   -17.26073  -14.56137    3.70803
       H   -18.84474   -6.97682   -1.33624
       O   -19.39924   -6.16989   -1.16838
      H1   -19.16235   -5.87984   -0.27590
       H   -16.56757   -1.89765    1.83001
       O   -17.37066   -1.41884    1.76652
      H1   -17.61187   -1.51927    0.79901
       H   -16.82393   -9.33427   -1.33350
       O   -17.50178   -8.71411   -1.16240
      H1   -17.81418   -8.73004   -0.21070
       H   -18.49335   -4.76909   -4.53839
       O   -17.65447   -4.34945   -4.58117
      H1   -17.93027   -3.47679   -4.88039
       H   -15.20912   -3.85757    3.62804
       O   -15.84437   -3.53761    2.93303
      H1   -16.00835   -4.31692    2.42777
       H   -18.40359  -12.26655    6.07975
       O   -17.84830  -11.62200    5.53183
      H1   -17.11721  -11.52506    6.11730
       H   -12.67571  -11.82948    4.23014
       O   -12.71790  -12.00405    3.27970
      H1   -11.88324  -12.54451    3.13351
       H   -13.24243  -14.39945    1.38778
       O   -12.80616  -13.70844    0.75170
      H1   -13.08527  -12.89875    1.20375
       H   -17.89037   -9.73677    4.48764
       O   -17.99213   -9.65861    3.53530
      H1   -17.18774  -10.10604    3.19297
       H   -12.43923  -11.82221    6.67067
       O   -12.61600  -11.11382    6.06453
      H1   -11.80083  -10.58247    5.99544
       H   -14.83743   -9.30150   -4.47284
       O   -14.17258   -8.65766   -4.76357
      H1   -14.44758   -8.33588   -5.59943
       H   -12.97631   -3.57388    4.25798
       O   -13.78808   -3.47054    4.76637
      H1   -13.76485   -4.09975    5.48601
       H   -18.64297  -13.85509   -1.42845
       O   -17.85958  -14.15389   -1.83900
      H1   -18.05437  -14.58165   -2.71339
       H   -16.67549  -10.35710   -5.35281
       O   -16.36585  -10.38053   -4.43718
      H1   -17.02029  -10.61002   -3.79708
       H   -18.60597   -8.86512    1.94599
       O   -18.94946   -8.36661    1.22023
      H1   -19.69281   -8.84703    0.74107
       H   -12.07816   -5.93241    5.12330
       O   -11.92488   -6.88431    5.08827
      H1   -12.52049   -7.33103    4.54235
       H   -17.48994  -12.40749   -2.49180
       O   -17.72562  -11.48030   -2.53081
      H1   -18.67510  -11.43356   -2.40950
       H   -14.88321   -9.81011    3.02009
       O   -15.35604  -10.46030    2.46240
      H1   -14.80726  -11.23592    2.54623
       H   -11.42769   -7.84306    8.11072
       O   -12.19896   -7.49168    7.75737
      H1   -11.96861   -7.28624    6.75383
       H   -12.78097   -9.73373   -4.44574
       O   -12.23528  -10.54432   -4.18619
      H1   -12.96884  -11.20068   -3.99719
       H   -17.48192  -15.89637   -1.13678
       O   -17.56325  -16.79661   -0.75134
      H1   -16.72064  -17.08511   -0.37315
       H   -10.89702   -6.54244    0.49643
       O   -10.42645   -5.70535    0.62631
      H1    -9.51816   -5.87396    0.35231
       H   -18.38589   -4.52168    4.37417
       O   -18.32644   -3.61421    3.98705
      H1   -17.48116   -3.69617    3.51836
       H   -16.58706   -1.12522    5.66908
       O   -17.00825   -1.84907    6.16171
      H1   -17.50793   -2.38499    5.52825
       H   -15.20292  -11.88774   -4.18931
       O   -14.44825  -12.45397   -4.01326
      H1   -14.63068  -12.82092   -3.15335
       H   -17.70502   -2.45586   -1.91667
       O   -18.18642   -1.68730   -1.72778
      H1   -18.26925   -1.16259   -2.49417
       H   -16.42565  -12.36213    2.92428
       O   -16.26398  -12.76358    3.80859
      H1   -16.85869  -12.26436    4.37050
       H   -17.89250  -12.73015    9.62000
       O   -18.41621  -11.92079    9.89434
      H1   -18.16326  -11.73125   10.81430
       H   -19.15807   -9.12642   -3.30393
       O   -19.59758   -8.59790   -4.04397
      H1   -19.55126   -7.65898   -3.79490
       H   -19.54735   -6.40969    9.36948
       O   -18.87138   -5.92796    8.88048
      H1   -18.79388   -5.05820    9.22925
       H   -12.74843   -8.58764    2.94548
       O   -13.57635   -8.06656    3.04117
      H1   -13.69526   -7.57898    2.21710
       H   -13.37849   -7.30689   -3.17199
       O   -13.38965   -6.47468   -2.66948
      H1   -12.68705   -6.05059   -3.06976
       H   -19.23215   -8.18601   -6.28170
       O   -19.15723   -7.66725   -7.10270
      H1   -18.50741   -6.89042   -6.92213
       H   -17.13190   -5.62617    1.53821
       O   -16.24523   -6.06559    1.66156
      H1   -15.95591   -6.48737    0.80787
       H   -13.24015  -13.26017    8.05605
       O   -12.70613  -13.42502    7.27531
      H1   -13.34902  -13.68255    6.61971
       H   -15.36972   -9.95460    7.42469
       O   -15.29539  -10.68225    6.79342
      H1   -14.32291  -10.62886    6.53297
       H   -15.04952  -13.62912    4.81359
       O   -14.54244  -14.22297    5.41495
      H1   -15.11545  -15.00038    5.62356
       H   -13.58248  -16.24356    3.12142
       O   -13.07488  -15.43752    3.33561
      H1   -13.53298  -15.03193    4.08919
       H   -15.14100   -6.62912    5.16201
       O   -15.97596   -6.77678    4.64887
      H1   -15.55068   -6.95952    3.79708
       H   -13.46509   -5.88707    7.28520
       O   -14.05311   -5.50261    6.63563
      H1   -14.63585   -4.84555    7.12001
       H   -17.78250   -6.69982    4.89450
       O   -18.71996   -6.43506    5.05670
      H1   -19.17350   -6.61604    4.27501
       H   -15.86326   -2.95808    7.15516
       O   -15.52835   -3.47900    7.86920
      H1   -16.25571   -3.74295    8.41691
       H   -10.30180   -9.68264   -1.89031
       O   -11.02126  -10.16494   -1.52495
      H1   -11.58728  -10.45912   -2.25401
       H   -12.71477   -7.09232   -0.87322
       O   -12.41943   -7.60539   -0.08099
      H1   -12.25837   -8.48683   -0.44866
       H   -15.19343   -3.01303   -1.28366
       O   -14.46771   -2.66879   -0.76442
      H1   -14.31622   -1.77810   -1.08593

