180
frame 9 | Written by MDAnalysis XYZWriter (release 2.4.3)
       H    -6.12709    3.72310   10.79103
       O    -6.22694    4.01733   11.71549
      H1    -6.83071    3.34575   12.09254
       H   -16.64448    0.48010    9.97986
       O   -16.77274    1.32222   10.37415
      H1   -15.86892    1.52676   10.62803
       H   -13.43447   -1.68194   17.29378
       O   -13.15808   -0.75381   17.23194
      H1   -12.44250   -0.85145   16.60304
       H   -10.62617   -2.37947    8.36845
       O   -10.86102   -2.07465    7.45183
      H1   -11.19462   -2.91434    7.03098
       H   -16.14148    2.03225   15.93652
       O   -16.85973    1.51092   16.31422
      H1   -16.38008    1.04514   16.97665
       H    -5.38353   -4.68730   17.03973
       O    -5.58664   -4.51297   16.09373
      H1    -6.05791   -3.69444   16.12604
       H   -12.79099    4.03830   15.21638
       O   -11.95010    4.31372   14.84489
      H1   -11.84839    5.21343   15.15928
       H   -10.58013    1.21992   16.49657
       O   -10.46707    2.18403   16.71198
      H1    -9.60872    2.37629   17.08511
       H    -6.24513   -2.29181    9.70359
       O    -6.91586   -2.69065   10.28523
      H1    -7.33529   -1.86235   10.69700
       H   -11.26564   -0.12040    9.78078
       O   -11.32089   -0.98759   10.22402
      H1   -12.25749   -1.13790   10.26305
       H   -12.43264   -4.35410   17.06490
       O   -12.64732   -3.66142   17.64237
      H1   -13.41314   -4.00812   18.14287
       H   -14.08315    2.80021   16.35971
       O   -14.54670    3.15943   15.50930
      H1   -15.02141    3.91728   15.88411
       H   -10.06543   -2.84363   19.06574
       O   -10.60365   -2.28243   18.49086
      H1   -11.33780   -2.91274   18.31251
       H    -9.18994    3.06856   15.29218
       O    -8.27474    3.32737   15.04707
      H1    -7.63236    2.67033   15.37783
       H   -10.85180    1.94119   12.03003
       O   -10.50871    2.35070   11.23256
      H1   -11.02573    3.12085   11.11948
       H   -12.84017   -0.25256   19.16979
       O   -13.11253    0.37481   19.81387
      H1   -13.90023    0.77318   19.36315
       H   -12.62535    1.15204    7.28600
       O   -12.07678    1.91518    7.57685
      H1   -12.27800    2.49778    6.78283
       H    -6.13290   -7.07312   14.27569
       O    -6.17225   -7.02650   15.28193
      H1    -5.87758   -6.09871   15.44218
       H   -11.73422   -0.11171   14.01206
       O   -11.73718   -1.04319   14.27846
      H1   -10.82911   -1.30528   13.96779
       H    -7.86527   -7.46799   15.60985
       O    -8.84967   -7.77004   15.62067
      H1    -8.89094   -8.40073   16.38421
       H   -12.27692   -6.60047   10.54155
       O   -11.38875   -6.87661   10.22080
      H1   -11.44520   -6.85154    9.24949
       H    -9.61536   -2.18338   11.80906
       O    -9.31273   -2.03778   12.73675
      H1    -8.89323   -2.87916   13.04408
       H   -10.68533    6.93089   12.24498
       O   -11.04717    6.16766   11.76170
      H1   -11.29944    5.54501   12.46386
       H    -5.04422   -2.22419   18.77683
       O    -5.17906   -1.59100   17.95391
      H1    -4.26151   -1.73913   17.49775
       H   -16.29485   -4.21292   16.14934
       O   -15.88076   -4.27841   15.26958
      H1   -15.46242   -3.39329   15.07021
       H   -15.69477   -1.71364   16.15773
       O   -15.19382   -1.59488   15.32778
      H1   -14.38490   -1.28132   15.75251
       H   -12.85356   -0.46713    6.21655
       O   -13.00251   -0.55153    7.21459
      H1   -12.17159   -1.01346    7.44027
       H    -8.00565    1.92698   13.65141
       O    -7.83402    1.81985   12.69656
      H1    -8.60882    2.32783   12.33527
       H    -5.84565   -4.52086   12.79420
       O    -5.48533   -5.25551   12.27960
      H1    -5.98591   -5.08341   11.44329
       H    -6.97641   -2.10364   15.11470
       O    -6.90107   -2.15661   16.09665
      H1    -6.03971   -1.70777   16.28704
       H   -13.12121    2.16391   10.79140
       O   -13.73485    1.87098   11.51819
      H1   -14.02786    2.72389   11.83370
       H   -10.95918   -7.94344   13.07409
       O   -10.77642   -7.16135   13.68302
      H1   -10.03967   -7.57339   14.25379
       H    -9.70262   -1.40837   17.39794
       O    -9.09247   -0.82522   16.87994
      H1    -8.38311   -1.48420   16.59881
       H   -10.37763    1.22784    8.06439
       O    -9.46780    1.08133    8.35581
      H1    -9.42932    1.17970    9.30830
       H   -14.95331   -5.12751   13.85659
       O   -14.08996   -4.98866   13.44081
      H1   -13.56077   -5.37660   14.20675
       H    -8.43289   -3.29935    9.36022
       O    -9.26372   -3.76814    9.20521
      H1    -9.03218   -4.62825    9.58044
       H    -4.67916    0.71659   13.75393
       O    -4.96775    0.75457   12.78437
      H1    -5.89904    1.09533   12.89785
       H    -8.12361    3.09677   19.01143
       O    -8.16785    3.53038   18.11392
      H1    -7.87898    4.42048   18.36489
       H   -13.69951    5.09315   12.86869
       O   -14.23277    4.29020   12.94344
      H1   -14.00834    3.93675   13.84948
       H   -12.01505   -6.50095   15.14146
       O   -12.64301   -5.93875   15.60106
      H1   -13.34468   -6.47602   15.87231
       H    -8.65325   -6.47021    8.78168
       O    -8.50551   -6.57258    9.70963
      H1    -9.40788   -6.69869   10.05442
       H    -8.18460   -0.14014   18.33876
       O    -7.45066   -0.02734   19.01835
      H1    -6.65127   -0.51517   18.65739
       H   -11.24766   -4.23504   10.03420
       O   -12.23901   -4.11914    9.98859
      H1   -12.34312   -3.45100   10.70621
       H   -18.39595   -0.28511   12.32926
       O   -18.14660    0.24814   13.13095
      H1   -17.38751    0.70296   12.76351
       H   -14.56188   -0.95917   10.81025
       O   -13.93763   -0.89541   10.07500
      H1   -14.31845   -1.53453    9.43518
       H    -9.16546   -0.45396   11.07617
       O    -8.20245   -0.39114   10.97929
      H1    -8.00913    0.28583   11.65205
       H    -6.23622    1.19739   18.77129
       O    -5.82998    2.07405   18.61264
      H1    -6.56300    2.68646   18.41371
       H   -13.25350    3.76183    8.89706
       O   -12.45587    3.86579    9.43501
      H1   -11.82595    3.26823    8.90601
       H   -17.37969   -2.56697   17.77456
       O   -16.50705   -2.41372   18.05172
      H1   -16.06925   -3.24242   18.19693
       H   -14.74394   -2.54171   12.15365
       O   -15.63536   -2.07383   12.10579
      H1   -15.51747   -1.53650   12.91502
       H   -12.54341    1.84561   12.97604
       O   -11.82396    1.71452   13.56444
      H1   -11.63052    2.65631   13.91620
       H    -5.43650   -2.68423   13.14955
       O    -6.37178   -2.90074   12.99944
      H1    -6.40503   -2.79911   12.06033
       H   -13.83358   -5.38128   11.72992
       O   -13.97249   -5.96923   11.02880
      H1   -13.43755   -5.54492   10.34744
       H    -6.05177    0.94199   16.26937
       O    -6.76493    0.83503   15.71273
      H1    -7.32969    0.37683   16.34836
       H    -8.52932   -0.13123    7.37660
       O    -8.50878   -0.72847    6.63726
      H1    -9.38158   -1.11962    6.70999
       H   -12.66128   -2.10598   13.05188
       O   -12.99879   -2.69701   12.36651
      H1   -13.19576   -3.52033   12.80273
       H    -9.41820   -5.79349   12.96703
       O    -8.64056   -5.30886   12.63599
      H1    -8.27633   -6.01298   12.13824
       H    -8.13977   -5.68209   17.25466
       O    -8.34249   -6.10507   18.09500
      H1    -7.60933   -6.73505   18.25629
       H   -11.48663   -7.43568   18.77047
       O   -10.82380   -6.87892   19.26003
      H1   -10.08025   -6.73024   18.59846
       H   -13.12488    1.34342   17.36240
       O   -13.11250    2.28312   17.49679
      H1   -12.20467    2.51332   17.24121

