180
frame 7 | Written by MDAnalysis XYZWriter (release 2.4.3)
       H    16.42624   17.54466   -2.68226
       O    16.76872   18.34938   -2.35842
      H1    17.64516   18.34748   -2.83715
       H    16.35837   10.75850   -7.30015
       O    16.22303   11.38509   -8.04474
      H1    15.27712   11.45290   -8.07421
       H    17.78550   13.10702    3.34591
       O    17.31744   13.68630    3.95493
      H1    17.27083   13.05735    4.70525
       H    12.86289   14.55322   -0.22815
       O    12.64204   15.13251    0.50456
      H1    11.98894   15.68656    0.12294
       H    15.14197   18.22517   -6.64558
       O    15.98498   18.24665   -7.10304
      H1    16.38533   17.42517   -6.77241
       H    19.36068   11.45763    1.49157
       O    19.19052   11.06920    0.62848
      H1    19.71296   10.28890    0.67554
       H    15.61880    7.70981   -8.90367
       O    16.22115    7.58937   -8.11267
      H1    16.75829    6.82764   -8.48463
       H    16.97525   10.22555   -1.65771
       O    17.32951    9.39693   -1.39061
      H1    18.24766    9.56206   -1.28652
       H    16.25386   14.78626    1.48141
       O    16.04057   15.42166    2.19321
      H1    16.29340   14.91691    3.00410
       H    14.05471    7.20066   -5.77944
       O    13.30159    7.53669   -5.28180
      H1    13.59810    8.36801   -4.88508
       H    16.56355    7.65963   -1.21115
       O    16.45689    6.67798   -1.13784
      H1    16.77453    6.57962   -0.23204
       H    17.52802    7.05404    2.35002
       O    17.67496    6.30372    1.78889
      H1    18.01500    5.69384    2.46442
       H    19.27918    9.37798   -9.24406
       O    19.64961    9.42619  -10.13370
      H1    19.05838   10.07228  -10.52485
       H    16.44985    8.97430   -5.37109
       O    15.78549    9.56351   -5.85095
      H1    15.45898   10.02878   -5.08486
       H    13.80132   15.00473   -2.24532
       O    13.58661   14.15184   -1.85917
      H1    12.77674   13.91280   -2.41811
       H    11.31768   11.28162   -1.17569
       O    12.18359   11.29781   -1.54759
      H1    12.84129   11.43518   -0.82251
       H    19.28684   19.32457   -1.99326
       O    19.39981   18.65835   -2.64647
      H1    19.38381   17.85052   -2.13790
       H    19.66958   15.92841   -0.95147
       O    19.67763   16.85735   -0.61945
      H1    19.10029   16.85279    0.17256
       H    15.92902   12.02297    0.69320
       O    16.71137   12.46699    0.28654
      H1    17.43156   11.93678    0.59830
       H    13.74520   10.63641   -3.18704
       O    14.14521    9.98049   -3.72600
      H1    14.48477    9.34746   -3.06015
       H     9.42090   13.20323   -0.82743
       O     9.16434   14.12121   -0.88113
      H1     9.48412   14.65063   -0.13231
       H    20.16080    6.47828   -6.58822
       O    19.35346    7.01740   -6.70803
      H1    19.00265    7.04077   -5.81628
       H    14.33552    4.96051   -7.46477
       O    14.19262    5.93969   -7.56204
      H1    15.04815    6.36983   -7.66627
       H    15.86959   12.25162   -1.16325
       O    15.39674   11.85662   -1.96403
      H1    14.84391   12.62946   -2.20590
       H    19.20629   15.74680   -4.88618
       O    18.65065   16.43693   -4.49746
      H1    18.69633   17.16481   -5.17220
       H    12.73321    8.52533   -6.55632
       O    12.43709    9.10539   -7.33344
      H1    12.24952    8.39507   -8.00756
       H    10.69963   14.68934   -4.35600
       O    11.11169   13.86602   -4.01266
      H1    10.33024   13.28411   -3.95158
       H    15.43944    9.32112    2.11428
       O    14.56805    8.95045    1.94446
      H1    14.46031    8.99352    0.92358
       H    17.55856   12.20775   -4.36096
       O    17.61756   12.38021   -3.44317
      H1    16.76830   12.00283   -3.16163
       H    16.92960   12.67371   -7.14935
       O    17.59079   13.09614   -6.56910
      H1    17.18697   14.01933   -6.66244
       H     8.90526   11.16403   -0.52808
       O     9.68305   11.45026   -1.00800
      H1     9.33878   11.48993   -1.89179
       H     9.62702   11.36891   -4.42602
       O     9.22691   12.05857   -3.92310
      H1     8.48351   12.37627   -4.45502
       H    13.39969    8.46801  -10.31839
       O    14.31280    8.71885  -10.07047
      H1    14.14149    9.43172   -9.50050
       H    17.81625   15.54979   -2.44811
       O    16.98639   15.38844   -1.96905
      H1    17.28485   14.65663   -1.37214
       H    14.77619    6.14345   -0.52450
       O    13.92775    5.92777   -0.17721
      H1    14.10437    5.32112    0.61645
       H    18.33506   14.40946   -9.92090
       O    17.51911   14.26226  -10.39135
      H1    17.58555   13.38206  -10.69968
       H    18.60016   11.69245   -6.10310
       O    19.03242   10.92230   -5.56564
      H1    18.76115   10.10390   -6.03639
       H    10.61798    8.55845   -2.74274
       O    11.12212    8.81647   -1.95569
      H1    11.46209    9.70885   -2.10782
       H    13.77973   11.94191    1.67078
       O    14.06471   11.28048    1.08244
      H1    14.01951   10.49056    1.59596
       H    10.84956   14.80748    3.02935
       O    11.50842   14.15235    2.75895
      H1    11.88550   14.51503    1.91404
       H     9.85260    8.73578   -5.09948
       O     9.57960    8.04597   -4.45200
      H1     9.71455    7.23380   -4.97092
       H    17.13257   16.09645   -5.58696
       O    16.60131   15.67810   -6.28548
      H1    15.73252   15.79973   -5.82149
       H    19.83282   11.44760   -1.08729
       O    19.78636   11.94050   -1.90011
      H1    18.81583   11.81946   -2.13554
       H    13.06384    8.91923   -0.99317
       O    13.76661    8.57091   -0.50762
      H1    13.51688    7.67243   -0.22298
       H    13.87131   14.72296   -5.37780
       O    13.99213   15.70148   -5.34033
      H1    13.66313   15.87039   -6.18949
       H    15.41205   15.93785   -2.54514
       O    14.63208   16.45634   -2.88680
      H1    14.49502   15.93785   -3.76464
       H    13.14449   13.85454   -8.89091
       O    12.91310   14.72978   -8.51879
      H1    13.56408   15.27328   -9.00181
       H    12.94877   11.68722   -8.66610
       O    13.51740   11.76222   -7.86030
      H1    13.50896   10.86185   -7.52335
       H    17.50988    8.90210   -7.93507
       O    18.40145    9.21640   -7.64899
      H1    18.69647    8.49773   -7.15617
       H    10.91529    9.74291   -6.63754
       O    10.26467   10.31361   -6.15301
      H1    10.18853   11.03536   -6.85237
       H    13.19513   13.95404    3.49715
       O    14.09643   14.20120    3.82469
      H1    14.46622   14.61834    3.06198
       H    12.38891   13.33249   -5.18154
       O    13.27793   13.01707   -5.40527
      H1    13.14387   12.61642   -6.25563
       H    16.44087   11.25554   -9.83308
       O    16.34719   11.42040  -10.79189
      H1    17.29229   11.46907  -11.03510
       H    18.39605    5.80572   -2.19483
       O    19.08358    6.48835   -2.16409
      H1    18.84504    7.04482   -1.43989
       H    12.51669   17.20098   -2.33480
       O    11.63711   17.33452   -1.91408
      H1    12.05783   17.84942   -1.17470
       H    18.58981    6.18077   -7.86745
       O    17.97768    5.54033   -8.38834
      H1    17.60675    4.96432   -7.65982
       H    18.85641   19.21440   -6.25224
       O    19.27875   18.39467   -6.24023
      H1    19.48648   18.17041   -7.14325
       H    18.61280    8.12640   -4.20468
       O    17.70225    7.91654   -4.57157
      H1    17.29320    7.38050   -3.89241
       H    17.22195   16.51866    1.77745
       O    18.08865   16.96773    1.50322
      H1    17.66751   17.75797    1.18405
       H    17.00414    8.57528    4.33905
       O    17.34005    8.92806    3.47514
      H1    18.20168    9.25253    3.76140

