180
frame 4 | Written by MDAnalysis XYZWriter (release 2.4.3)
       H    10.56160   11.99002  -15.87997
       O    10.80185   12.91662  -16.00549
      H1    11.26122   13.14718  -15.15030
       H     7.70330   10.72300   -9.43039
       O     7.07675   11.41357   -9.38452
      H1     6.87627   11.37482   -8.40152
       H     7.85014   13.16276   -9.18816
       O     8.47946   13.89886   -9.06928
      H1     7.84987   14.58105   -8.85024
       H    16.05469   10.07539   -6.14602
       O    16.27826   10.59139   -6.98994
      H1    15.38790   11.03367   -7.09117
       H     6.79223    9.58037  -15.68468
       O     6.98874   10.53083  -15.72121
      H1     6.94813   10.70132  -16.66512
       H     8.83555   15.02264   -4.64393
       O     9.67544   15.52456   -4.67089
      H1     9.44024   16.32515   -4.14228
       H    15.34663   16.05285  -14.62731
       O    15.14588   15.78767  -13.72643
      H1    14.21340   15.87891  -13.78268
       H     7.47300   16.50069  -15.57047
       O     8.41158   16.49689  -15.37367
      H1     8.56029   17.39809  -15.18844
       H    10.15059   17.27348  -17.57633
       O     9.78518   16.41750  -17.80136
      H1     9.20566   16.25522  -17.05204
       H    13.88311   17.09707   -5.52343
       O    14.27699   17.54980   -4.71921
      H1    13.50770   17.41699   -4.13315
       H    12.19544    8.96037  -13.22624
       O    11.70292    8.56161  -13.96289
      H1    12.26388    7.89756  -14.26140
       H    11.60301   15.97175  -17.14152
       O    12.38201   15.73900  -16.63443
      H1    12.78177   15.09189  -17.28781
       H    10.98344   15.43949  -12.31910
       O    10.60923   15.65203  -11.48280
      H1     9.68590   15.86094  -11.68188
       H     7.75563   12.48701  -15.56299
       O     8.10767   13.34042  -15.89113
      H1     9.06490   13.07294  -15.84275
       H    11.47685   17.42014  -10.90797
       O    12.13897   18.05327  -10.49163
      H1    13.00654   17.85565  -10.91675
       H     9.68796   13.79005   -7.56711
       O    10.09360   13.48229   -6.73966
      H1    10.58228   14.29835   -6.49718
       H    11.36842   16.33420   -9.25921
       O    11.45724   16.09619   -8.32933
      H1    11.11304   16.86767   -7.89621
       H    12.26598    8.37957   -6.30558
       O    12.28822    8.54824   -7.26066
      H1    12.13379    7.62301   -7.60195
       H    11.21939   13.59829   -3.96695
       O    11.56906   12.69026   -3.82805
      H1    10.86042   12.19467   -4.27297
       H    13.30212   13.30435  -17.56749
       O    13.64042   13.99818  -18.11595
      H1    13.69070   13.66409  -19.02085
       H     9.12940    7.16547  -12.95842
       O    10.05733    6.83184  -12.68279
      H1    10.77805    7.39191  -13.06366
       H    12.47075   15.82347  -14.68243
       O    12.39234   15.67294  -13.69720
      H1    12.02271   16.52201  -13.38618
       H     3.84548   11.82662   -9.87714
       O     4.31908   11.00992   -9.70825
      H1     5.27961   11.27643   -9.78162
       H     9.47770   19.07591  -14.56666
       O     8.63228   19.38352  -14.89765
      H1     8.75556   19.82587  -15.75362
       H    14.94745   17.23256  -12.49191
       O    14.81719   17.92648  -11.75582
      H1    15.12761   17.51048  -10.86662
       H    15.94159   12.59756  -13.24627
       O    15.22108   13.15488  -13.02296
      H1    15.37374   13.96196  -13.48386
       H     9.89082   10.64154   -5.63487
       O     9.69013   10.79590   -4.63985
      H1     8.88733   11.27384   -4.74548
       H    14.96496    7.53594  -11.45778
       O    14.90898    8.19654  -10.72928
      H1    14.20495    8.72499  -11.23478
       H    10.69281    9.85311  -15.23841
       O    10.09140   10.39162  -15.82582
      H1     9.20560   10.10936  -15.50491
       H    18.36157   15.43059   -9.90751
       O    17.75001   15.70418  -10.62673
      H1    17.28284   14.92468  -10.77901
       H     9.72713    7.77338   -9.67900
       O    10.15580    6.93201   -9.97617
      H1    10.06791    7.00571  -10.95278
       H     6.85508    8.57617  -13.20655
       O     7.75562    8.59990  -12.89059
      H1     7.73344    8.59458  -11.92081
       H    11.62325   13.44906   -7.99200
       O    12.44334   13.08781   -8.30818
      H1    12.41276   13.32273   -9.25894
       H     8.94770   17.98124   -6.93878
       O     9.70736   17.88763   -6.40777
      H1     9.42263   17.07809   -6.01844
       H     5.29371   14.73563   -8.23380
       O     6.16503   15.12975   -8.07072
      H1     6.02938   15.09834   -7.07158
       H    11.40319   18.55828  -14.95210
       O    11.05332   18.51103  -14.06109
      H1    11.38682   19.29695  -13.67276
       H    10.84766   13.83373  -10.83273
       O    11.14803   12.88661  -10.75781
      H1    10.31332   12.49690  -10.50430
       H     8.24810   16.32951  -13.45684
       O     8.17034   16.22658  -12.50061
      H1     7.42629   15.60365  -12.29727
       H    17.26393   15.37498   -5.99197
       O    16.57275   15.03849   -6.56682
      H1    15.95384   14.64977   -5.89795
       H     7.71065    8.77688   -8.53340
       O     8.46349    9.00385   -9.11491
      H1     9.06333    9.40748   -8.51358
       H    10.84645   19.15373   -7.28589
       O    11.11625   19.81809   -7.98855
      H1    11.78328   19.31632   -8.51001
       H     5.55423   18.65696  -10.52379
       O     5.68405   19.44582   -9.97511
      H1     6.31136   19.97569  -10.52044
       H     8.67830   13.18636   -5.69386
       O     8.08596   13.04480   -4.99481
      H1     7.20038   13.14510   -5.38617
       H     5.89800   14.15307  -12.40340
       O     6.09473   14.69988  -11.58136
      H1     5.76324   15.57898  -11.78543
       H    13.11337   10.55615  -12.61979
       O    13.17371    9.76051  -12.03564
      H1    12.67160   10.15988  -11.28976
       H    14.33896   13.64299   -5.09432
       O    14.73913   14.46735   -4.77938
      H1    14.33297   15.11287   -5.42546
       H     8.72128   18.50500   -9.42358
       O     8.98642   19.28731   -9.90751
      H1     9.51677   19.91451   -9.45636
       H    12.91392   15.66311   -7.46499
       O    13.69674   15.77947   -6.86083
      H1    14.39440   15.44459   -7.43817
       H    13.19052   11.69701   -7.54292
       O    13.66322   11.16842   -6.90865
      H1    13.33165   10.27149   -7.05225
       H     2.40674   13.54395  -11.20057
       O     3.03324   13.39356  -10.51590
      H1     3.77329   13.99167  -10.64723
       H    11.07682    9.94538   -7.34832
       O    10.24983   10.40416   -7.31643
      H1    10.57581   11.33951   -7.10756
       H    13.38398   11.94885   -3.87816
       O    14.20738   11.68903   -4.32904
      H1    13.76813   11.29938   -5.05888
       H     6.87045   15.21125  -17.77693
       O     6.47791   15.23102  -16.90275
      H1     7.06874   14.61585  -16.45911
       H    16.00043   10.09197  -10.52523
       O    16.95724   10.22580  -10.43862
      H1    17.01850   11.17750  -10.60900
       H     4.59661   17.02684  -11.83368
       O     5.50906   17.22127  -11.66013
      H1     5.81786   17.62507  -12.52600
       H     6.89365   18.25051   -8.99474
       O     7.40781   17.63708   -8.50654
      H1     6.82892   16.81599   -8.43500
       H    12.27568   10.88474  -17.33374
       O    13.23912   10.77619  -17.39306
      H1    13.31155   10.92974  -18.31495
       H     5.26167   10.84934  -12.86365
       O     6.16050   11.28845  -12.96276
      H1     6.48658   10.97804  -13.82642
       H    16.65370   16.64841   -9.70091
       O    15.73345   16.89493   -9.40133
      H1    15.89344   17.64131   -8.78580
       H    13.17132   12.50843  -13.51474
       O    12.26474   12.14421  -13.38348
      H1    11.91068   12.65862  -12.62676

