180
frame 9 | Written by MDAnalysis XYZWriter (release 2.4.3)
       H    -8.54905  -15.13397   -1.95696
       O    -7.71865  -15.54089   -2.00868
      H1    -7.20650  -14.79717   -2.41430
       H     4.41018  -17.43023   -2.70313
       O     4.81649  -18.04631   -2.08466
      H1     4.28184  -17.96240   -1.25768
       H     2.69859  -12.86255   -1.30272
       O     2.36166  -13.73581   -1.17705
      H1     2.15548  -13.83400   -0.24456
       H    -2.04044  -17.95411   -0.97839
       O    -2.54878  -18.67083   -0.63991
      H1    -2.69758  -19.24272   -1.41695
       H    -4.47389  -14.64609   -4.84730
       O    -4.92144  -15.47899   -5.18831
      H1    -4.20138  -16.06673   -4.91472
       H     2.01891  -14.24443   -5.13283
       O     1.14887  -14.34939   -5.54545
      H1     0.76624  -15.14092   -5.17484
       H    -1.63105  -12.20000   -7.34736
       O    -2.05900  -12.69520   -8.07498
      H1    -2.30708  -11.99857   -8.66673
       H     0.96778  -17.43759  -10.00121
       O     1.59585  -18.15263   -9.64676
      H1     1.83210  -17.68772   -8.81388
       H     4.07221  -18.33834   -7.63884
       O     4.22506  -17.63469   -8.26286
      H1     4.40333  -18.23163   -9.05055
       H    -2.36274  -10.89898   -3.21507
       O    -2.35053  -11.05614   -4.16772
      H1    -2.70025  -10.17186   -4.47744
       H     2.46808  -14.51836  -10.88181
       O     2.27747  -13.55114  -11.04741
      H1     2.17984  -13.45413  -12.03152
       H    -1.20556  -10.59472    1.54848
       O    -2.01692  -11.05398    1.25371
      H1    -1.58173  -11.93465    1.28423
       H    -3.76400  -12.25185   -4.35030
       O    -4.40035  -12.95817   -4.51309
      H1    -4.65002  -12.77708   -5.42820
       H    -0.13649  -15.92756  -10.74519
       O    -0.05292  -16.63005  -11.40253
      H1     0.18795  -16.17712  -12.22749
       H    -2.94218  -18.42183   -8.69254
       O    -3.89819  -18.35354   -8.84720
      H1    -4.09972  -19.30222   -8.69603
       H    -6.92341  -17.70955    1.34692
       O    -6.62050  -18.14358    0.51700
      H1    -6.24026  -17.44326   -0.06146
       H     2.26334  -12.50074   -9.22873
       O     1.97633  -12.60420   -8.30059
      H1     2.38804  -13.43267   -8.03664
       H    -3.37965  -18.21376   -3.42054
       O    -3.04851  -17.33175   -3.57780
      H1    -3.54773  -16.81620   -2.89860
       H     3.49305  -16.00898   -4.08393
       O     2.84392  -16.34620   -3.40614
      H1     2.03449  -15.80377   -3.53241
       H     0.68509  -11.90476    1.90643
       O     0.50882  -12.71506    1.43508
      H1    -0.12161  -13.11590    2.07367
       H    -2.56392  -18.07372    2.46942
       O    -2.48000  -17.40033    3.19172
      H1    -1.68013  -16.86672    2.96098
       H     0.16711  -10.76547   -7.91305
       O     0.07382  -10.06061   -8.60569
      H1     1.01265   -9.92210   -8.68909
       H    -0.02337  -15.30389   -7.84635
       O     0.39208  -16.12456   -8.01942
      H1    -0.12135  -16.67068   -7.41552
       H    -0.72516  -11.86815   -5.20666
       O    -0.45096  -11.63127   -6.12156
      H1     0.38219  -12.19134   -6.16809
       H    -5.48518  -17.22667   -8.88263
       O    -6.24596  -16.74888   -9.25271
      H1    -6.01475  -15.82273   -9.26374
       H    -3.89060  -15.76792  -12.97124
       O    -2.98207  -15.99456  -13.05368
      H1    -2.84093  -16.68503  -12.38624
       H    -1.81896  -14.33687  -13.55736
       O    -1.38046  -13.68131  -13.04869
      H1    -1.34534  -14.02582  -12.14493
       H    -7.02771  -18.77426   -2.66531
       O    -6.43227  -18.12109   -3.02835
      H1    -6.90884  -17.25757   -2.92893
       H    -9.38166  -16.55742   -3.08071
       O    -9.29119  -17.17709   -3.84229
      H1    -8.58686  -16.78838   -4.40584
       H    -2.94253  -12.35221   -0.95259
       O    -3.06765  -11.49886   -1.36877
      H1    -2.43621  -10.97946   -0.85982
       H    -8.41317  -12.85358   -8.00313
       O    -8.56044  -13.80214   -8.10605
      H1    -8.25613  -14.03687   -7.23003
       H     6.71149  -18.87105   -6.18160
       O     5.83983  -18.44067   -6.16593
      H1     5.73643  -18.22678   -7.15110
       H     2.24462   -9.24920   -4.57944
       O     1.65429   -9.98404   -4.43845
      H1     1.28885   -9.95052   -3.52777
       H    -6.30670  -16.50010  -11.80111
       O    -6.12501  -16.25106  -12.71071
      H1    -5.95070  -17.04307  -13.18522
       H    -5.29651  -10.43748   -8.61577
       O    -6.16627  -10.46442   -8.18168
      H1    -6.04888  -11.21259   -7.57059
       H    -8.66703  -17.79530   -8.42926
       O    -8.16726  -18.38324   -7.83479
      H1    -7.25376  -18.00826   -7.89050
       H    -6.04674  -12.75076   -1.70474
       O    -5.84477  -13.53163   -2.23669
      H1    -5.33712  -13.00679   -2.87150
       H    -6.77977  -13.14353   -5.82163
       O    -6.35343  -12.71195   -6.59026
      H1    -6.37416  -13.40350   -7.24750
       H     2.55103  -11.53577   -4.62289
       O     2.92022  -12.40586   -4.98305
      H1     3.65059  -12.62675   -4.40345
       H     2.16595  -15.08721   -6.90646
       O     3.08458  -14.86498   -7.21359
      H1     3.44350  -15.69102   -7.58189
       H     1.96134  -19.03708  -11.48731
       O     2.59476  -19.09881  -12.22667
      H1     2.89328  -18.18272  -12.36339
       H    -4.11062  -13.87753   -1.40027
       O    -3.50642  -14.33040   -0.83983
      H1    -2.63624  -14.09647   -1.30000
       H     0.16581  -13.87985   -1.95454
       O    -0.57784  -13.72376   -1.42436
      H1    -0.09721  -13.57782   -0.61487
       H    -4.17220  -16.13800    1.96322
       O    -4.64508  -15.53645    1.41447
      H1    -3.99752  -15.18127    0.80494
       H    -2.66858  -19.90871   -5.22312
       O    -3.27103  -19.77703   -6.00164
      H1    -3.91377  -19.18362   -5.76137
       H    -5.03353  -10.19074   -1.91608
       O    -5.12439   -9.60793   -2.69956
      H1    -5.91990   -9.99208   -3.09617
       H     0.12243  -13.46391  -10.22987
       O    -0.73491  -13.91008  -10.46145
      H1    -1.28777  -13.70487   -9.67695
       H    -1.21042  -17.96740   -5.90809
       O    -1.09848  -17.19510   -5.30718
      H1    -1.85259  -17.38805   -4.75453
       H     5.44157  -13.69816   -3.48342
       O     5.38886  -12.78215   -3.64139
      H1     5.86050  -12.71501   -4.45584
       H    -7.24651  -19.61110   -5.63854
       O    -6.31071  -19.58385   -5.42622
      H1    -6.21521  -19.10838   -4.57310
       H     3.16015  -11.47311   -7.82254
       O     3.91837  -11.06416   -7.30996
      H1     3.87449  -11.62873   -6.53648
       H    -4.27366  -13.87528   -8.01907
       O    -5.07737  -14.17464   -8.54306
      H1    -5.37773  -13.33281   -8.95405
       H     4.19834  -17.45075    1.23829
       O     4.01513  -18.25196    0.75267
      H1     3.32280  -18.65165    1.35631
       H     5.62022  -16.50978   -5.29296
       O     5.14474  -15.73077   -4.95666
      H1     4.81379  -15.41995   -5.77479
       H     3.69002  -16.12204  -10.12656
       O     3.15770  -16.16199  -10.91339
      H1     2.44701  -16.83492  -10.57659
       H    -2.20883  -19.36720   -7.12513
       O    -1.39971  -18.99154   -7.58419
      H1    -1.08927  -19.73618   -8.16280
       H    -0.13481  -16.58609   -3.88516
       O     0.22904  -15.91509   -3.25696
      H1     0.58786  -16.48701   -2.57047
       H    -7.50968  -16.80679   -6.55381
       O    -7.51497  -16.15248   -5.86197
      H1    -6.59166  -15.98587   -5.66112
       H    -8.90799  -20.16498   -3.55928
       O    -8.83029  -19.62309   -2.72103
      H1    -8.95863  -18.77363   -3.14427
       H    -3.63077  -19.14099  -11.91653
       O    -2.98952  -18.45840  -11.55772
      H1    -3.47855  -18.25967  -10.69244

