180
frame 5 | Written by MDAnalysis XYZWriter (release 2.4.3)
       H    -0.25580    9.98993    7.40781
       O    -1.08335   10.45024    7.66175
      H1    -1.40347   10.18179    8.49059
       H     2.54982   10.51215   -2.13929
       O     2.78846    9.81373   -2.72428
      H1     2.66767    8.96293   -2.31907
       H    -1.87399   12.85316    3.16990
       O    -1.99396   13.74134    2.83491
      H1    -2.81491   13.75671    2.33586
       H    -0.88950    3.94439    0.86035
       O    -1.29320    3.55272    0.04245
      H1    -1.77621    2.76615    0.31439
       H     0.39832    3.15028    2.48139
       O     0.12583    4.09531    2.25866
      H1     0.88832    4.50532    1.80872
       H    -0.44140    5.09230    4.56611
       O    -0.02931    5.17285    5.41301
      H1     0.90669    5.14802    5.26318
       H     2.02476    5.09623   -0.05602
       O     2.73161    4.43429   -0.01677
      H1     2.37732    3.59263    0.21179
       H    -3.23528    8.64700    0.43779
       O    -4.17639    8.83736    0.62329
      H1    -4.54563    8.90677   -0.28975
       H    -4.16172    9.57017   -3.57811
       O    -4.10368   10.31268   -3.01440
      H1    -4.88841   10.20740   -2.46700
       H    -6.47962    4.75683    1.29692
       O    -6.85298    4.36926    0.51014
      H1    -7.42711    3.64785    0.83529
       H     2.73138    5.82149    6.71299
       O     3.30008    5.87212    5.95679
      H1     3.99424    5.21932    5.90957
       H    -4.43871    5.90380   -3.40418
       O    -4.28630    6.07730   -2.47204
      H1    -4.45734    5.24400   -2.01672
       H     1.37943   12.80584   -0.66075
       O     2.04459   12.15693   -0.94507
      H1     2.73345   12.75268   -1.21963
       H    -4.42035    7.10112    0.86107
       O    -4.36297    6.13710    1.01769
      H1    -3.57244    5.94932    1.51045
       H     0.42775    7.22972    0.71169
       O     1.22546    6.74159    0.99024
      H1     1.65270    7.39271    1.56705
       H    -2.64440    5.50171   -2.04458
       O    -1.85483    4.98367   -2.30309
      H1    -1.60999    4.43983   -1.51944
       H     0.57979    8.72220    6.27952
       O     1.05160    8.88303    7.12922
      H1     1.88235    9.37254    6.88500
       H    -6.96201    8.22644    1.59907
       O    -7.48898    8.28611    0.84908
      H1    -6.93635    8.37024    0.12419
       H    -4.07641   10.23845    1.81902
       O    -3.81085   10.96101    2.38625
      H1    -4.63228   11.41535    2.63278
       H    -2.04846   10.84104   -0.84526
       O    -1.72273   10.22262   -1.55755
      H1    -2.48531   10.01555   -1.99993
       H     1.85522    7.05597   -1.04877
       O     2.54196    7.14171   -1.79238
      H1     2.06582    6.71593   -2.49878
       H     3.87105   10.80891    6.67788
       O     2.99612   10.74196    6.98471
      H1     3.07758   11.20695    7.84540
       H    -6.85644    8.61032    4.03725
       O    -6.07299    8.47243    3.54402
      H1    -5.34004    8.53365    4.14614
       H    -0.48284   12.37953    8.19796
       O    -0.03967   13.22435    8.47508
      H1    -0.19204   13.82653    7.68587
       H     2.41275   13.24422    5.31557
       O     1.92331   13.54708    6.07078
      H1     2.07693   12.77240    6.66377
       H    -0.41083   14.70375    2.43198
       O     0.39660   15.25559    2.52738
      H1     0.23118   15.91562    3.20328
       H    -0.04387   13.47029    0.93284
       O    -0.18242   13.55423   -0.02918
      H1     0.12980   14.46846   -0.19548
       H    -1.61700    4.78968    2.81214
       O    -2.36304    5.37739    3.08421
      H1    -2.97663    4.80408    3.51527
       H     2.79699    8.49557    3.26762
       O     1.90019    8.54975    2.87440
      H1     1.95689    9.37891    2.44905
       H    -2.23710    6.66158    7.71216
       O    -2.04267    6.59087    6.76480
      H1    -1.18466    6.18040    6.79027
       H    -5.28591   14.16652    1.93446
       O    -4.58557   14.59953    1.43572
      H1    -4.79562   15.54270    1.28538
       H    -7.66792    6.80879    6.44460
       O    -7.34156    7.59957    6.02055
      H1    -7.76354    8.34340    6.53351
       H    -5.74372   12.83369    3.79942
       O    -5.94667   12.76742    2.85505
      H1    -6.87180   12.51939    2.81199
       H    -5.65652   12.09060   -1.17428
       O    -5.94040   11.16027   -0.88110
      H1    -5.48637   11.04720   -0.06639
       H    -1.29835   14.81197    5.42256
       O    -0.68218   14.63690    6.17957
      H1     0.03812   14.11621    5.77153
       H    -4.86860    5.84199    7.46968
       O    -5.45763    5.15380    7.19004
      H1    -5.00907    4.76759    6.44018
       H    -1.59343    8.98378    3.57371
       O    -1.55370    9.45754    2.69490
      H1    -2.33868   10.02218    2.71534
       H    -1.11447   11.48353    4.64712
       O    -0.53776   11.67488    3.85263
      H1    -0.67577   10.89739    3.27438
       H    -4.21304    9.75822    9.06709
       O    -4.86484    9.22335    8.51480
      H1    -4.62870    9.12292    7.56130
       H    -3.16482   11.95457    0.91492
       O    -2.89611   12.25570    0.04263
      H1    -2.46750   13.07229    0.26571
       H    -1.06173    8.51685    1.21861
       O    -1.12239    8.01458    0.39483
      H1    -1.08443    8.66399   -0.30547
       H     2.43527   11.89631    2.08978
       O     2.75673   11.20631    1.51043
      H1     2.58697   11.51368    0.60736
       H    -4.84481   13.69783   -2.36301
       O    -5.09405   13.96496   -1.45736
      H1    -4.43833   14.12983   -0.75452
       H    -1.73143    3.37528    7.64410
       O    -1.04094    3.09378    7.08915
      H1    -0.88796    3.94476    6.56718
       H    -2.50513   11.02000    6.15000
       O    -3.04362   11.24023    5.40008
      H1    -3.75962   11.90389    5.58933
       H     2.35266    6.22383    8.50535
       O     1.46982    6.19681    8.04319
      H1     1.31009    7.14052    7.74577
       H     0.96005   12.52225    3.62931
       O     1.70364   12.98598    3.23549
      H1     1.40565   13.87352    3.00334
       H     0.41516    8.20962    4.06753
       O    -0.12385    8.11314    4.86054
      H1    -0.68463    7.34510    4.67007
       H    -5.42326    4.03065   -0.52166
       O    -4.46469    3.90421   -0.71190
      H1    -4.05408    4.54466   -0.10890
       H     0.59940   12.17819   -2.48488
       O    -0.18399   12.15899   -3.02901
      H1    -0.76419   11.60539   -2.49289
       H    -4.92757    4.73398    4.33314
       O    -4.11854    4.32785    4.70221
      H1    -4.29136    3.36409    4.57673
       H    -6.96735    7.69016   -2.29812
       O    -6.29957    8.08281   -1.71977
      H1    -5.52958    7.51061   -1.77289
       H    -5.65865   10.69095    8.02172
       O    -6.08157   11.53071    7.70524
      H1    -7.01344   11.51464    7.79523
       H    -5.50850    6.05364    2.42271
       O    -6.09265    5.55919    3.05538
      H1    -6.31723    6.23752    3.76588
       H     4.13006    7.43289    4.73938
       O     4.44366    7.78486    3.90230
      H1     4.77511    6.99248    3.42093
       H     0.95851    9.23838   -3.09303
       O     0.18497    8.65329   -3.32400
      H1    -0.45892    9.16418   -2.79512
       H    -4.08032   15.71470    5.39491
       O    -3.34840   15.07381    5.24198
      H1    -3.18321   15.11707    4.32985
       H    -3.12283    8.00634    5.96059
       O    -3.82915    8.55165    5.58322
      H1    -3.42797    9.43698    5.56839
       H    -4.89291   13.70963    5.69033
       O    -5.29008   12.84010    5.44815
      H1    -5.53320   12.38316    6.27348
       H     6.20378   12.68267    2.17580
       O     5.36770   12.36374    2.54912
      H1     4.87825   12.04435    1.80605

