180
frame 0 | Written by MDAnalysis XYZWriter (release 2.4.3)
       H   -18.82740  -16.41088    7.08837
       O   -19.80545  -16.18894    7.04443
      H1   -19.76565  -15.35379    7.51022
       H   -17.28578  -17.77955    6.63601
       O   -17.89320  -17.80123    5.95178
      H1   -18.53550  -18.54938    6.02061
       H   -18.46912   -7.61891   -3.33213
       O   -17.98784   -6.94984   -2.75781
      H1   -17.26581   -7.48230   -2.42258
       H   -17.82648   -6.33769   -0.50741
       O   -17.76725   -5.64787    0.14669
      H1   -17.35155   -6.13966    0.90143
       H   -19.66657  -12.91352   -1.03753
       O   -18.91574  -13.44661   -1.26770
      H1   -19.17490  -13.76810   -2.18088
       H    -9.69594   -9.73678    2.83069
       O    -9.31943  -10.24807    3.60130
      H1    -9.22728   -9.57670    4.29223
       H   -10.09474  -15.24581    0.20470
       O   -10.05273  -14.74474    1.05373
      H1    -9.06304  -14.58724    1.15216
       H   -14.55987  -16.29716    5.47416
       O   -14.22799  -16.88512    6.17364
      H1   -13.54304  -16.31474    6.50715
       H   -10.40159  -16.15595    4.08610
       O    -9.77294  -15.41763    3.99912
      H1   -10.04197  -14.97166    3.19872
       H   -11.66763  -15.24118    5.73224
       O   -12.29005  -15.02182    6.44338
      H1   -11.83120  -14.22607    6.85603
       H   -11.14443  -13.68551   -2.73861
       O   -11.38967  -13.80439   -3.66772
      H1   -10.75253  -14.55751   -3.86885
       H   -13.32990   -7.51510    4.50221
       O   -13.34303   -6.77398    3.87617
      H1   -13.88210   -6.11123    4.33770
       H   -15.28475  -18.58270    3.82873
       O   -14.63210  -19.23981    4.17034
      H1   -14.66665  -19.06805    5.14714
       H   -16.20341  -11.45389   -0.74805
       O   -16.48243  -12.29991   -0.42083
      H1   -17.25901  -12.46732   -0.99608
       H   -18.15689  -13.93080    6.23999
       O   -18.85961  -13.30745    5.98143
      H1   -18.57123  -12.53246    6.48254
       H   -13.07155  -10.42508   -1.08775
       O   -13.32684  -10.72887   -0.20441
      H1   -13.23429  -11.68771   -0.26928
       H   -19.35621   -9.93938    6.15535
       O   -18.59057   -9.86725    6.73171
      H1   -17.87986   -9.50277    6.20161
       H   -18.14711   -8.51616    3.58885
       O   -18.25928   -7.91025    4.36923
      H1   -19.19564   -7.64516    4.41209
       H   -17.54784  -11.03811    9.84027
       O   -17.34476  -11.45250    9.00643
      H1   -17.56116  -10.79436    8.36308
       H   -17.26023   -7.00587    3.15934
       O   -16.77184   -6.64090    2.42739
      H1   -15.90589   -7.02222    2.61137
       H   -16.84319  -14.62092    9.53685
       O   -15.95333  -14.77864    9.82559
      H1   -15.81439  -15.72676    9.82484
       H   -11.91227  -17.51139    3.19384
       O   -11.75214  -17.41584    4.17379
      H1   -12.55148  -17.84956    4.47848
       H   -17.74501  -17.83004    9.38663
       O   -17.08683  -17.56069    8.77634
      H1   -16.38041  -18.16748    9.07960
       H   -15.42430  -11.71173    9.15635
       O   -14.49785  -11.85520    8.83153
      H1   -14.44150  -12.76845    9.17218
       H   -13.76311  -14.09179    0.04944
       O   -14.06303  -13.33853   -0.47546
      H1   -14.95513  -12.99698   -0.23840
       H   -15.75562   -5.17525    3.74497
       O   -15.16068   -4.79683    4.43364
      H1   -15.71161   -4.90529    5.18481
       H   -17.71060  -17.60905   -2.40203
       O   -18.23922  -17.88169   -3.15586
      H1   -18.25241  -18.84637   -2.99842
       H   -17.52864  -10.30022    2.11918
       O   -16.79566  -10.37224    1.52235
      H1   -16.77169  -11.32934    1.29515
       H   -18.46937  -15.38507    9.60157
       O   -18.42704  -14.61848    9.04416
      H1   -19.25810  -14.06051    9.24761
       H   -10.79394  -10.83915    4.62613
       O   -10.98955  -11.53448    5.27148
      H1   -10.16233  -12.04598    5.30587
       H   -13.60288  -10.05787    1.29477
       O   -14.03189   -9.69405    2.08291
      H1   -15.02804   -9.67205    1.81814
       H   -10.55171  -13.73650   -0.09883
       O   -10.51322  -13.33941   -0.98749
      H1    -9.58105  -13.18587   -1.12998
       H   -13.76282   -6.88855    6.79859
       O   -13.54267   -6.53393    7.68936
      H1   -13.29096   -5.62176    7.46952
       H   -19.14621   -4.51931    2.23988
       O   -19.53871   -5.37141    1.96836
      H1   -18.89636   -5.73694    1.27593
       H   -14.65373  -14.72789    3.50702
       O   -15.25341  -15.19007    4.14443
      H1   -15.56250  -14.45862    4.80813
       H   -15.00910  -14.71264   -3.37590
       O   -14.75866  -15.26752   -2.57635
      H1   -14.45868  -14.55608   -1.99443
       H   -11.34935  -12.25429    6.97959
       O   -11.80909  -12.64834    7.73192
      H1   -12.64397  -12.16525    7.66195
       H   -15.93078  -16.26782   -1.76657
       O   -16.51295  -16.91542   -1.33663
      H1   -17.28623  -16.42986   -1.03740
       H    -8.18195  -12.77709    5.30514
       O    -8.87928  -13.29860    5.69869
      H1    -9.05190  -13.99299    5.07391
       H   -15.51938  -14.12607    6.91157
       O   -15.88765  -13.53596    6.24347
      H1   -15.62497  -12.63762    6.50273
       H   -11.87982   -8.17758   -0.46317
       O   -11.06514   -8.43836   -0.00106
      H1   -10.77585   -9.16314   -0.58478
       H   -15.22793  -17.53794    0.12994
       O   -14.33186  -17.95260    0.01776
      H1   -14.35568  -18.05779   -0.88145
       H   -18.43941   -8.91588   -0.37680
       O   -17.51803   -9.05433   -0.68829
      H1   -17.13427   -9.60760    0.04037
       H   -10.90628   -7.16661    1.38116
       O   -11.24134   -6.30592    1.69435
      H1   -11.92647   -6.56810    2.30309
       H   -16.27678  -11.32857    4.28925
       O   -15.59008  -10.87613    4.79694
      H1   -14.78008  -11.20427    4.38111
       H   -12.62085  -17.62087    0.65711
       O   -11.89791  -17.33646    1.23165
      H1   -11.32207  -18.18874    1.27073
       H    -9.45059  -16.44019    1.15490
       O    -8.97355  -17.14440    0.63344
      H1    -8.17528  -17.31159    1.18485
       H   -17.62820  -13.39086    3.58911
       O   -17.13606  -12.62261    3.34111
      H1   -16.38387  -13.04317    2.95777
       H   -13.77107   -8.99457    6.53972
       O   -14.19132   -8.52423    5.82331
      H1   -14.79541   -9.14655    5.39669
       H   -12.22660  -12.04223    3.95830
       O   -13.09609  -12.09743    3.54946
      H1   -13.27804  -11.45522    2.85186
       H   -18.77018  -14.98349   -0.34523
       O   -18.64449  -15.93742   -0.12464
      H1   -18.76718  -15.91311    0.82067
       H   -15.65415  -11.57778   -3.32657
       O   -15.38216  -10.82610   -2.77512
      H1   -14.40578  -10.82011   -2.86292
       H   -11.90388  -10.78742    8.50227
       O   -12.12340   -9.82524    8.44135
      H1   -12.94356   -9.87845    8.86588
       H   -16.16815  -16.65790    3.76181
       O   -16.72546  -17.40535    3.43727
      H1   -17.04293  -17.60802    4.31928
       H   -12.76482  -15.37395    1.91444
       O   -13.42089  -14.61760    1.99273
      H1   -12.88827  -13.89412    2.33153
       H   -18.13365  -16.17642    3.02335
       O   -18.73690  -15.39290    3.02020
      H1   -19.36919  -15.69051    3.67756
       H   -15.15308   -9.13738   -3.57640
       O   -15.03901   -8.45120   -4.25476
      H1   -15.84001   -8.41747   -4.76150
       H   -12.57876  -15.70455   -3.37724
       O   -12.48369  -16.67982   -3.39830
      H1   -11.54854  -16.85352   -3.41321
       H   -18.75078   -7.69474    9.14289
       O   -19.41574   -8.37684    9.24690
      H1   -19.43631   -8.64173    8.33712
       H   -16.29839  -13.46921   -4.90370
       O   -15.51125  -13.17157   -4.41329
      H1   -15.01682  -12.88856   -5.19259

