180
frame 7 | Written by MDAnalysis XYZWriter (release 2.4.3)
       H    15.47464  -16.17233    3.91666
       O    15.78319  -16.95779    3.45928
      H1    14.97956  -17.27727    3.10081
       H    16.13183  -16.94848   -2.74884
       O    16.49283  -16.12411   -2.94521
      H1    17.32664  -16.30304   -2.51360
       H    13.08219  -14.53122   -1.40753
       O    12.79241  -15.34110   -1.01421
      H1    12.12333  -15.67718   -1.65868
       H    10.98675   -7.16666    1.72806
       O    11.24593   -6.77358    2.56861
      H1    10.58848   -6.06194    2.67401
       H    12.62746   -9.31064   -6.64083
       O    13.58134   -9.39994   -6.73945
      H1    13.93830   -8.83973   -5.98772
       H    16.14895   -4.96029   -4.28345
       O    16.55508   -4.63314   -3.43360
      H1    16.61923   -5.46744   -2.91275
       H    16.66322  -14.02378    7.65952
       O    16.95570  -14.93722    7.44671
      H1    17.80139  -14.75725    7.01703
       H    10.79712  -13.53969    1.01902
       O    11.28498  -13.19657    1.76015
      H1    11.10649  -12.25622    1.62745
       H    18.47866  -10.85778   -2.58474
       O    17.80257  -11.19195   -3.19977
      H1    17.39502  -10.33332   -3.52298
       H    15.39407   -0.84800    4.39921
       O    15.30865   -1.79832    4.65434
      H1    15.47109   -2.18270    3.80933
       H    13.00321  -10.70677   -1.56301
       O    12.22983  -10.87711   -2.16299
      H1    11.49151  -10.89113   -1.46727
       H    12.17016   -6.24811   -1.77174
       O    12.48980   -5.40771   -2.04806
      H1    13.48653   -5.50676   -1.83307
       H    14.24569   -7.26111   -4.36194
       O    13.87694   -8.08096   -4.09692
      H1    13.80916   -7.89548   -3.13755
       H    15.00779   -5.65601   -6.56326
       O    15.12861   -5.59571   -5.59830
      H1    14.15770   -5.45397   -5.44261
       H    10.94026   -8.04103   -1.34170
       O    11.19625   -8.04465   -2.31183
      H1    11.54236   -8.94242   -2.42936
       H    18.43030  -12.88436   -5.07682
       O    19.37423  -12.74288   -5.34850
      H1    19.57861  -13.58433   -5.74854
       H    14.27886   -3.68936    1.63267
       O    14.99293   -3.03551    1.51432
      H1    14.66684   -2.59810    0.70534
       H    19.10376   -3.71372   -5.24624
       O    18.19047   -3.99789   -5.46448
      H1    17.88072   -4.12071   -4.55089
       H    19.67580   -3.38403   -1.56827
       O    19.69872   -2.45730   -1.22329
      H1    19.42550   -1.89791   -1.96333
       H    12.31621   -2.72870    4.75634
       O    12.04974   -2.73638    3.82205
      H1    12.57920   -3.53574    3.49841
       H    17.17872   -6.85336   -1.09662
       O    17.19125   -7.05206   -2.04361
      H1    18.04585   -7.58483   -2.06595
       H    19.73156   -9.04403    1.50549
       O    19.08518   -8.78540    0.73534
      H1    18.95065   -7.82152    0.89652
       H    13.65255   -1.80298   -1.17558
       O    14.60473   -1.70642   -0.90317
      H1    14.99664   -1.03954   -1.49238
       H    16.54547  -15.00100    1.33899
       O    17.09266  -14.99092    2.19304
      H1    16.83097  -15.88250    2.51563
       H    18.05564   -9.49712   -7.32880
       O    17.54636   -8.68021   -7.35718
      H1    17.09092   -8.76858   -6.50241
       H    16.51390   -3.36978    1.31797
       O    17.46484   -3.75400    1.21030
      H1    17.99176   -3.01534    0.85534
       H    13.26726   -9.83148    8.48081
       O    14.04261   -9.67673    7.98621
      H1    14.17932   -8.72298    7.91224
       H    17.30937  -14.39451   -4.03014
       O    16.82674  -13.55473   -4.17218
      H1    16.99129  -13.01299   -3.38335
       H    12.82526  -14.77945    1.03891
       O    13.35719  -15.18451    1.68808
      H1    13.10456  -16.04276    1.42170
       H    18.59258   -5.48802    0.96385
       O    19.37560   -6.08851    0.88781
      H1    20.04798   -5.51002    1.27380
       H    17.82970   -6.53684    3.70430
       O    18.77702   -6.46045    4.04874
      H1    19.23132   -6.06984    3.30390
       H    15.58539   -8.04440   -1.60807
       O    14.62963   -7.89926   -1.48798
      H1    14.44574   -8.67911   -1.00940
       H    13.89290  -13.66069   -4.38819
       O    13.22207  -13.64807   -3.64834
      H1    13.25521  -12.83453   -3.12276
       H    18.54515  -11.00298    8.79260
       O    18.56096  -10.87073    7.86121
      H1    18.14087   -9.99326    7.79080
       H    10.34185   -9.75775    2.11009
       O    11.13667  -10.09051    1.68966
      H1    10.68028  -10.50278    0.95642
       H    16.59534   -8.30224    7.12936
       O    17.10510   -8.59814    7.87315
      H1    17.99800   -8.24390    7.64322
       H    16.40094  -12.22978   -7.10834
       O    16.32576  -11.31917   -6.78669
      H1    15.74024  -10.87091   -7.44526
       H    15.24102   -7.78372    2.98032
       O    15.43476   -6.86478    3.14324
      H1    15.84917   -6.57111    2.28949
       H    13.62082  -14.22120    4.65717
       O    14.34245  -14.73259    4.21836
      H1    13.99435  -14.81733    3.27566
       H    18.09043   -2.57134    2.61954
       O    18.43958   -2.03353    3.34183
      H1    18.92093   -1.35197    2.83902
       H    12.42777   -7.71195    5.51629
       O    12.24199   -8.28204    4.72471
      H1    11.89323   -7.56893    4.14666
       H    20.22310  -10.13775   -1.60248
       O    19.61497  -10.78812   -1.30206
      H1    18.96288  -10.16673   -0.88739
       H    15.97753  -15.10267   -1.21986
       O    15.57333  -15.38051   -0.40294
      H1    14.60015  -15.49659   -0.73352
       H    18.05713   -5.22191   -6.79107
       O    18.42371   -5.64397   -7.58172
      H1    17.93069   -6.50804   -7.54182
       H    15.47843   -4.44560   -2.16623
       O    15.02769   -4.75995   -1.31475
      H1    14.75537   -3.87110   -0.98768
       H    15.67071   -6.48273   -0.06482
       O    16.38395   -6.30026    0.57116
      H1    16.66463   -5.37674    0.35388
       H    16.34671   -9.98557   -5.19818
       O    16.63241   -9.18059   -4.76551
      H1    15.79670   -8.83516   -4.34629
       H    13.55379  -12.01398    6.02075
       O    13.17916  -12.79866    6.44017
      H1    12.37897  -12.46950    6.82728
       H    18.61726  -15.24725    1.34245
       O    19.41710  -15.05127    0.79200
      H1    19.98054  -14.69707    1.52075
       H    10.49449   -6.22156   -0.02383
       O    10.47341   -7.22696    0.05756
      H1     9.53533   -7.46793   -0.12420
       H    19.83628   -7.53355   -5.72334
       O    19.70727   -8.14334   -5.00744
      H1    18.79956   -8.35149   -5.13207
       H    15.44993  -11.94613    8.15963
       O    16.27014  -12.45552    8.22065
      H1    16.96013  -11.76140    8.14446
       H    13.59273   -9.77657    0.70148
       O    14.09136  -10.00925   -0.07878
      H1    14.91367  -10.27279    0.33249
       H    18.97143  -12.84755    6.95662
       O    18.90908  -13.64411    6.43745
      H1    18.19116  -13.62241    5.79347
       H    19.28551  -15.77438   -0.88916
       O    18.98842  -16.27605   -1.71087
      H1    19.89794  -16.37676   -2.05495
       H    13.30571   -8.86176    3.39967
       O    14.11629   -9.27381    2.98792
      H1    14.17039  -10.04802    3.48873
       H    13.96138   -5.59261    3.02031
       O    13.25653   -5.03366    2.64135
      H1    12.65271   -5.78399    2.49777
       H    17.10264  -11.25509    0.78598
       O    16.68204  -10.36478    0.64962
      H1    17.37470   -9.76983    0.82828
       H    17.15876  -13.91496    3.56735
       O    16.86098  -13.31229    4.30582
      H1    15.89637  -13.60440    4.30805
       H    15.54011   -6.67183    4.94144
       O    15.37180   -6.88221    5.87476
      H1    14.44693   -6.72426    5.95280

