180
frame 139 | Written by MDAnalysis XYZWriter (release 2.4.3)
       H     3.99714   -7.04952    5.21235
       O     3.16161   -6.68518    4.77736
      H1     3.18539   -5.76728    5.05405
       H     5.29047  -11.42847    0.80229
       O     5.43331  -11.45070    1.79548
      H1     5.70490  -12.35384    1.86175
       H     9.62079  -13.95874    8.20375
       O     9.23884  -13.28019    8.84591
      H1     9.57293  -13.72460    9.64178
       H     6.10865  -10.16744    8.43660
       O     6.57627  -11.01800    8.51348
      H1     7.19008  -10.87425    7.73573
       H    13.53031   -8.89074    6.87960
       O    12.69402   -8.92883    6.44334
      H1    12.23014   -8.34587    7.06530
       H    11.35235   -8.95375    0.37582
       O    12.26979   -8.80945    0.61120
      H1    12.31824   -9.09211    1.52271
       H     9.79895  -10.18272   -1.36526
       O     9.88925   -9.31076   -0.99383
      H1     8.98245   -9.17398   -0.52067
       H    11.80827   -9.95836    4.10218
       O    11.67946   -9.51543    3.25223
      H1    11.22281   -8.69320    3.50396
       H     7.74789   -5.54993   11.43185
       O     8.29233   -6.35202   11.21077
      H1     7.88498   -6.96193   11.84953
       H    10.49745   -7.22616    8.18890
       O    11.48519   -7.04316    8.17637
      H1    11.61136   -6.55947    7.36345
       H    11.55783  -11.23345    7.72265
       O    11.95463  -11.55057    6.94355
      H1    12.29632  -10.76362    6.50230
       H     5.22599   -0.55540    6.03588
       O     5.21718   -1.34052    5.48243
      H1     4.76736   -2.00932    6.00907
       H     2.91923   -3.27149    4.73501
       O     3.31559   -4.03787    5.21794
      H1     4.07414   -4.30246    4.64579
       H    12.83175   -5.36533   11.60541
       O    12.26614   -6.11355   11.64622
      H1    12.72717   -6.83004   12.03880
       H     4.13576  -12.31206    8.94405
       O     4.55936  -12.50339    8.08981
      H1     5.36463  -11.86244    8.13205
       H    13.01389  -13.00266    6.90711
       O    13.43209  -13.81235    7.23032
      H1    14.26156  -13.52485    7.69586
       H     6.33269  -10.08501    2.33679
       O     7.08595   -9.52418    2.48990
      H1     7.82809  -10.14928    2.48115
       H     4.19061   -2.43262    9.72226
       O     4.38403   -2.10771    8.78583
      H1     4.83707   -2.94784    8.49212
       H     8.74891   -7.70126    6.23159
       O     8.77334   -7.21133    7.09100
      H1     7.97665   -7.56163    7.49134
       H     9.62201  -15.41906    4.55690
       O     8.96500  -14.72450    4.35442
      H1     9.51591  -13.97604    4.38441
       H     5.93408   -8.55019    5.55419
       O     5.01826   -8.47645    5.68724
      H1     4.75577   -9.36326    5.29783
       H     6.23073   -1.72482    1.08542
       O     6.12838   -2.36688    1.77753
      H1     6.74741   -2.13539    2.52141
       H    11.28806   -2.03456    9.62721
       O    11.19333   -2.72217   10.29982
      H1    11.97310   -3.28126   10.16551
       H    13.46515   -7.09688    8.43233
       O    14.14418   -7.78915    8.62479
      H1    14.98815   -7.32650    8.53249
       H     9.79725   -9.33567   13.84489
       O     9.96273  -10.20899   13.60374
      H1     9.58265  -10.39975   12.74521
       H     1.51116   -9.24899    8.30703
       O     2.06123   -9.55809    9.07798
      H1     2.94451   -9.32805    8.77872
       H    11.43014  -10.88521    9.81248
       O    10.69062  -10.68239    9.17338
      H1    10.38092  -11.60328    8.95049
       H     6.14993  -13.42055    8.22533
       O     6.83026  -14.08917    8.14518
      H1     7.55388  -13.64706    8.56882
       H    14.63122   -9.49347    9.57830
       O    14.77328  -10.36245   10.04347
      H1    15.18747  -10.96338    9.36977
       H     7.25875   -4.81039    5.79500
       O     6.41941   -4.66165    5.39962
      H1     6.69803   -4.96368    4.54205
       H     8.92486   -0.94069    4.14680
       O     9.57961   -0.27834    4.48193
      H1    10.46151   -0.66800    4.21822
       H    12.05886   -5.26967    8.93364
       O    12.58513   -4.48141    8.88739
      H1    13.43551   -4.76118    8.57279
       H     6.02438   -8.67995   12.10260
       O     6.95644   -8.67717   12.28222
      H1     7.31832   -9.18593   11.50324
       H     7.50044   -3.09446    4.45944
       O     7.53759   -2.23533    4.03281
      H1     6.91684   -1.74894    4.60263
       H     8.76511   -5.42894   -0.10378
       O     8.83827   -6.07141    0.63181
      H1     8.38828   -6.85640    0.22679
       H    15.98843   -8.82977    6.42218
       O    15.45351   -8.15156    5.93762
      H1    16.05807   -7.35843    5.94837
       H     8.83135  -11.52874    5.36227
       O     8.38543  -11.02959    6.08709
      H1     9.06898  -10.44197    6.27860
       H     9.35115  -10.73744   10.36217
       O     8.70512  -10.92423   11.09230
      H1     8.85247  -11.80607   11.33237
       H     3.87229  -13.32415    4.98474
       O     3.56444  -12.50283    5.45349
      H1     4.10410  -12.50780    6.23657
       H     3.56899  -11.17697    4.27035
       O     3.72520  -10.44420    3.67941
      H1     4.27608  -10.81545    2.95570
       H     2.69021   -6.62744    9.63174
       O     3.59518   -6.57524    9.95451
      H1     3.90197   -5.71991    9.66807
       H     9.18889   -7.71086    4.38764
       O     9.91076   -7.40411    3.84590
      H1     9.63110   -6.61813    3.35431
       H     4.71181   -8.68170    7.55730
       O     4.97419   -8.89311    8.44049
      H1     5.54824   -8.12030    8.75399
       H    14.24151  -11.37158    5.14981
       O    13.90249  -11.40666    4.20593
      H1    14.47485  -10.79593    3.77598
       H    11.87055   -4.30120    5.83582
       O    12.04751   -3.44184    6.32851
      H1    12.19101   -3.72747    7.21868
       H     6.99161   -3.74820    7.88209
       O     6.41454   -4.10633    8.59887
      H1     7.01212   -4.03589    9.34241
       H     6.39472   -6.06955    2.58156
       O     7.12068   -5.59968    2.97928
      H1     7.79398   -5.80997    2.30229
       H     4.07254   -7.74734   11.53663
       O     4.20495   -8.51404   12.13486
      H1     4.29255   -8.08028   12.99355
       H    15.23501   -3.23321    7.17564
       O    14.93417   -4.14229    7.10695
      H1    14.13147   -3.91628    6.55020
       H     8.63872  -12.23477    1.63564
       O     9.11766  -11.44655    1.89969
      H1     9.94385  -11.45758    1.46354
       H     6.75669   -8.75585   -0.31901
       O     7.24832   -8.10119    0.25956
      H1     7.16525   -8.59317    1.13430
       H    10.27220  -12.09464    3.46578
       O    10.28101  -12.32287    4.40291
      H1    11.19354  -12.65369    4.67957
       H     7.98884   -9.57875    5.25008
       O     7.82986   -8.66354    4.95959
      H1     7.65888   -8.77015    4.01549
       H     9.90829   -3.82634    6.88321
       O     9.05027   -4.33897    7.08190
      H1     9.33003   -5.24627    7.13147
       H    13.09231   -6.90327    5.52906
       O    12.42047   -6.18544    5.61587
      H1    11.80723   -6.38975    4.84747
       H     8.90842   -3.57493   10.28644
       O     8.07089   -3.50742   10.80352
      H1     7.64207   -2.64943   10.49718
       H    14.01476   -6.42190    0.95431
       O    13.15184   -6.13003    0.63769
      H1    12.66737   -6.95268    0.73394
       H     4.13842   -6.59802    3.24404
       O     4.80644   -6.90526    2.57450
      H1     4.83381   -6.03911    2.13639
       H    12.35462   -3.99965    2.31032
       O    11.37511   -3.98583    2.19830
      H1    11.32589   -4.71928    1.58191
       H     6.80411   -6.02961    8.58264
       O     6.93924   -6.91952    8.90010
      H1     7.47604   -6.71730    9.73370

