180
frame 2 | Written by MDAnalysis XYZWriter (release 2.4.3)
       H   -12.93687  -17.31246   -6.66248
       O   -13.68996  -16.69771   -6.43534
      H1   -13.27049  -16.46874   -5.54430
       H   -17.46430   -7.78029   -2.81979
       O   -16.99094   -7.20120   -3.44886
      H1   -16.66599   -7.77862   -4.18719
       H   -15.02017   -4.58763   -3.69901
       O   -15.06316   -3.90459   -2.98086
      H1   -14.97907   -4.39496   -2.16563
       H   -12.54151   -8.07574   -2.00570
       O   -12.39619   -8.92326   -1.55630
      H1   -11.50842   -9.13388   -1.92930
       H   -16.60813   -6.81278    0.28066
       O   -16.14993   -6.29783    0.98032
      H1   -15.75600   -7.00584    1.49757
       H   -14.58967  -13.08180   -8.24839
       O   -15.37491  -13.34556   -7.73016
      H1   -15.55385  -14.26827   -7.81565
       H   -10.15865  -14.19363    1.49992
       O   -10.80465  -13.54171    1.25818
      H1   -10.57014  -12.64081    1.54031
       H   -11.89311  -13.21681   -3.23515
       O   -12.16570  -13.59099   -4.10538
      H1   -11.85184  -14.50167   -4.05220
       H   -13.84708   -4.24761    0.08578
       O   -12.94166   -4.42682   -0.23485
      H1   -12.56044   -5.04782    0.50270
       H   -20.01684  -12.14554   -6.49479
       O   -19.20012  -12.19672   -5.94997
      H1   -18.92985  -13.07433   -6.13011
       H   -12.72850   -7.02994    4.89125
       O   -12.91464   -6.17292    4.45759
      H1   -13.86379   -6.22435    4.24393
       H   -19.48982  -11.52300    2.73967
       O   -19.68900  -10.98870    1.91941
      H1   -19.61587  -10.13820    2.34324
       H   -14.91729  -18.51143    3.90138
       O   -13.99627  -18.67365    4.13751
      H1   -14.00924  -19.48363    4.68615
       H   -17.49008  -13.46321   -1.91745
       O   -17.11445  -13.63941   -1.03807
      H1   -17.89186  -14.07780   -0.61258
       H   -17.44853  -13.34568    6.69736
       O   -18.38987  -13.09834    6.97714
      H1   -18.30397  -12.18842    7.24741
       H   -12.71741  -10.75245   -0.85026
       O   -13.06037  -11.34788   -0.16221
      H1   -13.64763  -11.92216   -0.68837
       H   -19.71905   -8.52796    6.93304
       O   -18.85118   -8.25149    7.17755
      H1   -18.45947   -8.18308    6.31052
       H   -13.79679   -6.94457   -5.49462
       O   -13.35179   -7.75958   -5.73048
      H1   -13.99304   -8.42691   -5.41824
       H   -17.61785   -9.07062    4.77528
       O   -17.26515   -8.16676    4.88807
      H1   -17.94214   -7.71456    4.40971
       H   -17.46940  -10.54434    8.69595
       O   -17.46323  -10.53950    7.75359
      H1   -18.00082   -9.74420    7.53080
       H   -16.02596   -8.16374    3.62760
       O   -15.26523   -7.76419    3.12717
      H1   -15.12158   -8.57799    2.59817
       H   -18.92891  -14.11549   -3.56254
       O   -18.16191  -13.47914   -3.62980
      H1   -18.59501  -12.80880   -4.22486
       H   -15.67388   -4.45368    0.58545
       O   -15.35367   -3.67610    0.04810
      H1   -15.40984   -2.92796    0.59693
       H   -19.21791  -15.34469   -6.16355
       O   -18.43871  -14.86165   -6.48530
      H1   -17.76079  -15.54434   -6.47203
       H   -14.24966  -13.95850    0.42681
       O   -14.52103  -13.79276   -0.47301
      H1   -15.48673  -13.76253   -0.44641
       H   -16.23292   -5.45769    3.62715
       O   -15.64106   -4.77093    3.96169
      H1   -15.75063   -4.74816    4.91362
       H   -17.21990  -17.53292   -2.54570
       O   -18.06424  -17.78239   -2.91265
      H1   -17.79483  -18.72108   -3.17983
       H   -18.16487  -11.01596    0.89852
       O   -17.38091  -11.01521    0.33368
      H1   -17.59873  -11.73649   -0.30089
       H   -14.03049  -10.23438    0.89789
       O   -14.70178   -9.99046    1.58875
      H1   -15.48068  -10.28747    1.15522
       H   -11.35776  -12.36838   -1.07386
       O   -11.03033  -12.48744   -1.97779
      H1   -10.13204  -12.10875   -1.99681
       H   -18.54882   -5.32446    3.12294
       O   -18.42103   -6.24465    2.75705
      H1   -17.71574   -6.09562    2.06494
       H   -14.28454  -14.79558    3.47299
       O   -14.77598  -15.15309    4.25505
      H1   -14.08647  -15.05590    4.98772
       H   -14.84893  -14.83595   -3.57591
       O   -14.55972  -15.57607   -2.97635
      H1   -14.24677  -15.10840   -2.16523
       H   -10.81014  -13.08691    5.54514
       O   -11.68942  -13.00641    5.94189
      H1   -12.24437  -12.89476    5.18677
       H   -15.56010  -16.33267   -1.86464
       O   -16.23884  -16.41025   -1.15566
      H1   -16.57598  -15.48882   -1.15993
       H   -15.70125  -14.28040    7.38826
       O   -15.91924  -13.71221    6.58642
      H1   -15.14610  -13.08944    6.60185
       H   -11.12817   -9.95819    0.84982
       O   -11.41636   -9.06924    1.06360
      H1   -12.09317   -8.96160    0.37118
       H   -14.71156  -17.52274   -0.12587
       O   -13.97251  -18.06973   -0.11446
      H1   -13.90754  -18.30664   -1.06270
       H   -17.81663  -18.47867    3.32532
       O   -18.39555  -19.17451    2.94365
      H1   -18.01602  -19.50988    2.14830
       H   -19.15004   -8.19947    0.05405
       O   -18.17775   -8.17250    0.08009
      H1   -17.87365   -9.09147    0.15028
       H   -11.79108   -7.28295    1.40806
       O   -11.91227   -6.35726    1.62756
      H1   -12.50434   -6.43346    2.39900
       H   -16.15022  -11.80502    4.65471
       O   -15.33551  -11.48329    5.10539
      H1   -14.68703  -11.73167    4.46440
       H   -12.71396  -17.17502    0.97767
       O   -11.91250  -17.02290    1.58644
      H1   -11.61678  -17.90539    1.71990
       H   -13.31217   -6.18153   -3.00647
       O   -12.76764   -6.41664   -2.26358
      H1   -12.94027   -5.69378   -1.56940
       H   -18.62505  -13.64770    3.68116
       O   -18.48657  -12.69804    3.78817
      H1   -18.71961  -12.58488    4.75928
       H   -12.43867   -9.01811    6.50634
       O   -12.87679   -8.85549    5.63034
      H1   -13.49990   -9.59024    5.53810
       H   -12.22237  -11.32711    2.88292
       O   -13.00934  -11.60641    3.35811
      H1   -13.58911  -11.29497    2.67618
       H   -19.67650  -14.52290    0.62178
       O   -19.04166  -15.21308    0.50473
      H1   -19.17021  -15.70874    1.30562
       H   -13.21016  -18.33838   -3.12127
       O   -13.46858  -19.18460   -2.80003
      H1   -14.28742  -19.39774   -3.28734
       H   -15.68513  -12.69879   -3.87532
       O   -15.39658  -12.11893   -3.14145
      H1   -14.47094  -12.24253   -3.32869
       H   -14.20532  -11.97245   -6.54104
       O   -13.81949  -11.10766   -6.31606
      H1   -14.40713  -10.79699   -5.66951
       H   -17.43646  -10.91094   -7.08764
       O   -17.35837   -9.96163   -6.81255
      H1   -16.85860   -9.56818   -7.59571
       H   -17.43716   -5.56844   -3.48929
       O   -17.65017   -4.60283   -3.40761
      H1   -16.77704   -4.19317   -3.21822
       H   -15.92101  -16.50962    4.25797
       O   -16.54465  -17.26543    4.13428
      H1   -16.85112  -17.26214    5.04604
       H   -12.41441  -13.93477    1.78729
       O   -13.37573  -13.84820    2.03991
      H1   -13.28112  -12.98134    2.52888
       H   -18.02385  -15.69416    4.01997
       O   -18.81916  -15.36689    3.56571
      H1   -19.52875  -15.59123    4.25358
       H   -15.70110   -9.99911   -4.08837
       O   -15.54823   -9.28580   -4.79323
      H1   -16.20382   -9.63646   -5.46506
       H   -18.04101  -17.73899   -4.77393
       O   -17.98645  -17.52583   -5.72015
      H1   -17.01469  -17.45617   -5.87188
       H   -13.33790  -16.33282   -3.56533
       O   -12.65154  -16.91866   -3.99808
      H1   -11.88188  -16.52051   -3.51305
       H   -16.74680  -14.22577   -4.92936
       O   -15.78490  -14.14254   -5.03619
      H1   -15.61902  -14.02330   -5.98091

