180
frame 12 | Written by MDAnalysis XYZWriter (release 2.4.3)
       H     8.45716    9.34397   12.97070
       O     7.75668    9.07173   12.38082
      H1     7.85814    8.15940   12.24290
       H    12.39295    7.55332    6.84751
       O    13.34266    7.47002    6.64754
      H1    13.42908    8.15359    5.91282
       H    12.63922    8.42636   17.01932
       O    12.77591    9.36536   16.93467
      H1    13.72754    9.45428   17.12273
       H    12.43985   13.02862   11.10994
       O    11.53038   13.17802   11.00874
      H1    11.14317   12.62277   11.65333
       H    10.93800   10.10891    9.51678
       O    10.46838    9.26487    9.65495
      H1     9.54830    9.45493    9.42658
       H    12.64574   13.47139   17.60389
       O    13.45434   13.64289   18.12825
      H1    13.46868   14.59127   18.21207
       H    14.47294    8.30267    9.61792
       O    15.10051    8.53791    8.88606
      H1    14.50924    8.43239    8.07152
       H     8.35586   10.93980   16.54614
       O     8.48036   11.64017   17.20399
      H1     8.17160   11.23344   18.03227
       H    15.07862   19.43726   12.25074
       O    14.75552   18.56243   12.60415
      H1    13.79850   18.55049   12.47756
       H    10.44512    4.62144   12.80577
       O     9.60486    4.87144   13.23436
      H1     9.89911    5.50811   13.91693
       H    14.71222    8.16161   13.35523
       O    14.52163    7.28290   13.45228
      H1    13.98873    7.17600   12.65828
       H    10.75541   18.99525   15.10380
       O    10.59045   18.33834   15.79393
      H1    11.34802   17.76843   15.70792
       H    15.60984   10.35108   12.21668
       O    16.28819    9.74014   12.61312
      H1    17.05235    9.86026   12.05599
       H    15.16978    4.41034   14.61528
       O    14.31464    4.23930   15.04022
      H1    14.11805    5.04384   15.50838
       H    10.19475    7.60271   15.54430
       O    11.00097    7.61772   15.01788
      H1    11.22249    8.49755   14.94804
       H    17.68182    7.29913   12.28540
       O    18.50122    7.58577   11.91270
      H1    19.03256    6.83167   12.26671
       H    15.62762   13.82477   12.10829
       O    14.64851   13.89160   12.38293
      H1    14.44562   14.66565   11.85889
       H     9.41354   10.95728   14.01360
       O     9.55395   10.45330   14.86176
      H1    10.36250   10.94639   15.09469
       H    13.93387    7.07917   15.34868
       O    13.48015    6.64821   16.15102
      H1    12.58997    6.80721   15.78553
       H    13.31088   11.46726   13.04949
       O    13.67445   10.89211   12.29859
      H1    13.86616   11.58582   11.64574
       H    12.55416   16.30474   10.36500
       O    11.63106   16.06560   10.57370
      H1    11.61054   15.17842   10.94335
       H     9.92035   16.40350   11.42537
       O     8.96006   16.59707   11.30943
      H1     8.96460   17.59085   11.35147
       H    10.93339   15.08058   15.83547
       O    11.12904   14.74340   14.90023
      H1    10.26113   15.02948   14.47972
       H     9.02799    5.89733   11.64365
       O     8.81704    6.65556   11.02883
      H1     9.67028    7.07976   10.89702
       H    10.49459    8.78636    7.30307
       O    10.54137    7.98322    6.72148
      H1     9.88292    7.36052    7.08573
       H    17.55694   16.58453   12.66747
       O    17.23723   15.74859   13.05292
      H1    18.05422   15.45360   13.48367
       H    12.26576    8.80389   10.42551
       O    13.01645    8.60281   11.00121
      H1    13.28169    9.48400   11.33596
       H     8.38173   14.33964   13.40384
       O     8.67816   15.21518   13.81714
      H1     8.67937   15.79531   12.98620
       H    13.75373   16.64461   17.65186
       O    13.73615   16.23773   18.57229
      H1    14.62829   16.14798   18.94655
       H    18.12091   13.17868   14.70753
       O    18.62091   13.95848   15.08007
      H1    19.21327   14.06328   14.31066
       H    16.14582    9.05155   17.72432
       O    15.66260    9.73209   17.20419
      H1    16.15180    9.72045   16.36745
       H    15.39983   10.50218    5.90258
       O    15.83749   10.39541    6.79637
      H1    16.35180    9.58856    6.64173
       H     9.49030   13.42001    6.94931
       O     9.33880   14.24447    7.48152
      H1     8.71638   14.76374    6.95634
       H    14.61268   15.23311    9.80855
       O    14.45432   15.97206   10.42017
      H1    15.16809   16.61854   10.06847
       H    11.30347   10.95776   17.54446
       O    11.33778   11.83175   17.89611
      H1    10.41546   12.07424   17.78722
       H    19.29942    9.19061   15.81419
       O    19.00839    9.88494   16.47958
      H1    18.52079   10.45033   15.86415
       H    10.56689   11.45039    7.17539
       O     9.88234   11.63795    6.49323
      H1     9.10352   11.28680    6.86386
       H    16.52518   11.62687   17.86576
       O    16.62292   12.55513   18.06129
      H1    17.57522   12.48862   18.35759
       H     9.30152   15.34831   17.22596
       O    10.14182   15.49662   17.64355
      H1    10.18475   14.73372   18.26914
       H    17.19154   14.00515   11.90940
       O    17.09563   13.19413   11.41894
      H1    17.13336   13.43700   10.53280
       H    16.97429   10.60843   14.20416
       O    17.00157   11.08720   15.04683
      H1    16.17026   11.59072   15.12658
       H    14.12623   18.11056   15.93494
       O    13.44682   17.39272   15.88573
      H1    13.88573   16.76522   15.30950
       H    11.11998   16.86452    9.16756
       O    11.21431   17.50914    8.38722
      H1    10.60490   18.18618    8.81897
       H    11.53733   12.96110   14.89606
       O    12.02205   12.11521   14.85974
      H1    12.97507   12.36216   15.02833
       H    14.82055   11.76330    9.23050
       O    14.29090   11.09156    9.63745
      H1    14.62170   10.30864    9.17945
       H    18.77559   12.23800   12.16833
       O    19.07402   11.74088   12.91486
      H1    19.73116   11.05452   12.73382
       H    16.80722   15.04469   19.35106
       O    16.45441   15.26184   18.45439
      H1    16.45469   14.35633   18.10176
       H     7.11356   13.49516   10.34630
       O     8.09248   13.71259   10.43092
      H1     8.29145   14.02497    9.53386
       H     7.84996   11.11834    8.92503
       O     7.87241   10.20063    9.18476
      H1     7.47792   10.22556   10.06349
       H    14.90533   14.04695    7.54394
       O    14.37552   14.09807    8.35229
      H1    13.71818   14.71480    8.02148
       H    14.27384   13.24141   16.44203
       O    14.73095   12.90202   15.63774
      H1    15.09131   13.74400   15.15257
       H    14.62541   14.90967   13.81410
       O    14.94603   15.41324   14.59762
      H1    15.86814   15.66460   14.31780
       H    17.79921    8.62171    7.78195
       O    18.17110    9.08418    6.99039
      H1    18.70996    8.32085    6.70259
       H     7.75315   13.15101   12.20820
       O     7.95848   12.83745   13.07388
      H1     7.14457   12.46723   13.42742
       H    17.83518   14.35422    8.11494
       O    17.76881   13.62747    8.75814
      H1    18.33294   12.93933    8.47700
       H    15.93633    5.82918   13.34478
       O    16.68685    5.43080   13.84534
      H1    16.90584    4.67623   13.30155
       H    17.88829    7.50878   10.01876
       O    17.52590    7.59484    9.08865
      H1    16.67932    8.02654    9.20247
       H    11.40956   12.15250    8.90168
       O    11.74183   11.28309    8.47828
      H1    12.68526   11.28810    8.74316
       H     8.16113   14.41889   15.59345
       O     8.01978   14.31438   16.53817
      H1     7.83979   13.34870   16.61172
       H     9.14217    8.47224   17.95086
       O     9.12925    7.90686   17.15552
      H1     9.46596    7.09245   17.57889

