180
frame 5 | Written by MDAnalysis XYZWriter (release 2.4.3)
       H    -1.14978    0.45008  -14.29443
       O    -1.98815    0.20227  -13.86691
      H1    -2.71208    0.73225  -14.26921
       H    -2.27989   -2.87332  -13.82987
       O    -2.76757   -2.44789  -14.54066
      H1    -2.38187   -1.56672  -14.45318
       H    -3.25347    1.70315  -18.16136
       O    -2.30320    1.78980  -17.84949
      H1    -2.03176    0.82686  -17.65614
       H    -6.70923    1.59378  -17.42377
       O    -7.50769    1.76949  -16.92723
      H1    -8.09188    1.00036  -17.15266
       H    -5.88575   -2.80683  -10.15596
       O    -6.64412   -2.73795   -9.55872
      H1    -6.58716   -1.80985   -9.31617
       H    -3.70963    6.22861  -18.84808
       O    -3.45392    5.29271  -19.13317
      H1    -3.15966    4.92009  -18.30725
       H    -3.60620    5.21235  -13.08732
       O    -3.55473    4.77547  -13.92209
      H1    -4.39477    5.08446  -14.26879
       H    -5.72239    1.76587  -14.65567
       O    -6.62973    1.43437  -14.49508
      H1    -7.08592    1.80607  -15.29927
       H    -5.93279    4.90104  -16.29739
       O    -6.14999    5.51389  -15.53922
      H1    -6.49933    4.99750  -14.79578
       H     2.89358    1.73774  -13.25784
       O     3.79400    1.33640  -13.19626
      H1     4.19041    1.99776  -12.60355
       H    -6.10415   -1.46683  -14.28332
       O    -6.46029   -1.14741  -15.14210
      H1    -6.59447   -0.19733  -14.89529
       H    -5.15077   -1.61385  -16.71529
       O    -4.38650   -1.76202  -17.23322
      H1    -4.69579   -1.91284  -18.10996
       H     1.13262   -2.98426  -12.37372
       O     0.65849   -2.78074  -11.56510
      H1     1.03607   -3.46012  -11.03297
       H    -2.64797    4.31053  -10.48998
       O    -2.94301    3.41593  -10.75317
      H1    -3.35162    3.07033   -9.95657
       H     0.68279    3.04057  -13.16432
       O     1.61802    3.37087  -13.11853
      H1     1.59355    4.01469  -13.84901
       H    -1.26735    1.41325  -12.71574
       O    -0.84462    2.03377  -12.15139
      H1    -1.55862    2.50862  -11.73878
       H    -7.60791   -4.33790  -13.59643
       O    -6.76071   -4.67191  -13.35755
      H1    -6.83403   -5.05216  -12.47928
       H    -5.45039   -6.46556  -19.33859
       O    -5.89604   -7.30895  -19.13141
      H1    -6.79115   -6.96592  -19.01724
       H    -2.07533   -5.02899  -11.03867
       O    -2.25917   -5.45588  -10.19325
      H1    -2.72398   -4.73483   -9.76848
       H     1.89026   -0.93449  -10.25482
       O     1.01574   -0.57782  -10.28933
      H1     0.68892   -1.24992  -10.95762
       H     2.32060    3.65197  -17.95803
       O     1.87492    3.90840  -17.13876
      H1     1.08484    3.34535  -17.04291
       H     5.27377    1.01778  -18.26903
       O     4.36480    1.35372  -18.39735
      H1     4.00594    1.58166  -17.53436
       H    -8.22133   -2.51274  -12.44897
       O    -7.92822   -1.60620  -12.58299
      H1    -7.87821   -1.51608  -13.54627
       H    -0.92639   -7.66573  -13.10888
       O    -0.50400   -6.81156  -12.99161
      H1     0.07136   -7.09783  -12.22201
       H     2.03247    0.87652  -15.88940
       O     2.84464    1.45277  -15.88991
      H1     3.15552    1.35788  -14.98636
       H    -1.15463   -4.92533  -16.61630
       O    -1.37915   -4.89823  -15.70578
      H1    -1.84284   -4.04830  -15.61026
       H    -1.70337   -1.33691  -17.70176
       O    -1.84391   -0.80306  -16.86740
      H1    -2.77961   -1.06021  -16.78629
       H   -10.08816   -3.65343  -14.51855
       O    -9.11440   -3.75263  -14.57814
      H1    -8.93689   -3.78730  -15.55455
       H    -3.78293    2.41613  -15.71190
       O    -3.96183    2.11436  -14.80290
      H1    -3.84707    2.96419  -14.39083
       H    -2.95526   -7.96016  -14.09787
       O    -3.60468   -7.24031  -14.21196
      H1    -4.27236   -7.67333  -14.77401
       H    -0.73388   -3.81966  -12.01389
       O    -1.44740   -4.32928  -12.47574
      H1    -1.12349   -5.23989  -12.74911
       H     0.81098   -7.88980  -16.94574
       O     0.57508   -8.31857  -16.12594
      H1     0.56892   -7.61350  -15.47064
       H    -3.21063   -4.68001  -16.51267
       O    -3.74287   -4.39207  -17.29708
      H1    -3.92003   -3.44582  -17.04300
       H     0.31386    0.87802  -19.05245
       O    -0.46773    1.03611  -19.54914
      H1    -1.08096    1.45977  -18.96188
       H     1.71856   -4.94250  -17.77949
       O     2.61736   -4.74900  -17.42446
      H1     2.88394   -4.18289  -18.14462
       H    -0.79914   -4.33952  -18.35206
       O    -0.27095   -5.07355  -18.01106
      H1    -0.67383   -5.79907  -18.46377
       H    -2.66162   -3.02866  -18.54482
       O    -1.72851   -2.78471  -18.65234
      H1    -1.63051   -2.80293  -19.64757
       H    -4.55066   -0.62773  -11.60541
       O    -4.36230    0.21305  -11.09867
      H1    -4.86800    0.93106  -11.43352
       H    -8.81801    1.60750  -12.00525
       O    -8.77559    2.21726  -12.74904
      H1    -7.86846    1.95293  -13.10938
       H    -9.94962   -2.04824  -17.60777
       O   -10.38029   -2.91079  -17.74048
      H1    -9.65767   -3.33728  -18.18619
       H    -6.91256    4.30052  -18.22186
       O    -5.99292    4.24651  -18.05335
      H1    -5.49516    4.87057  -18.62193
       H    -9.40156   -0.58021  -13.18805
       O    -9.73957   -0.01405  -13.87622
      H1    -9.50234    0.93150  -13.55082
       H     3.47418   -2.75226  -14.75600
       O     4.41938   -2.51481  -14.86594
      H1     4.41078   -2.18536  -15.78336
       H    -8.59298    3.28170  -17.29927
       O    -8.81096    4.13646  -17.76777
      H1    -9.44105    4.60705  -17.16862
       H    -9.05037   -0.55332  -15.48806
       O    -9.04576   -0.68777  -16.48582
      H1    -8.14085   -1.06171  -16.55847
       H    -2.04896   -8.12624  -18.23442
       O    -1.84375   -7.56720  -18.97617
      H1    -1.06775   -8.01911  -19.31700
       H     0.75326    5.63787  -14.72186
       O    -0.21034    5.40127  -14.65121
      H1    -0.64485    6.18057  -15.11799
       H    -4.15355   -2.25248  -13.27060
       O    -4.89269   -1.98223  -12.72417
      H1    -5.45598   -2.76148  -12.69308
       H    -0.64607    3.52867  -15.43917
       O    -0.43724    2.85947  -16.06404
      H1    -1.20571    2.91119  -16.71077
       H    -6.94337   -3.20385  -18.88070
       O    -6.32195   -2.45372  -19.05733
      H1    -5.92093   -2.63692  -19.92031
       H     4.07783   -0.75740  -17.59220
       O     4.56748   -1.57307  -17.42589
      H1     4.56597   -1.96507  -18.31635
       H    -4.96008    3.22387  -11.48682
       O    -5.73800    2.69637  -11.67560
      H1    -6.05878    2.43446  -10.83946
       H     0.13487    1.18912  -15.30217
       O     0.22179    0.21758  -15.32031
      H1    -0.56180   -0.05709  -15.80611
       H    -3.78532   -8.43726  -16.81005
       O    -4.73229   -8.25075  -16.67727
      H1    -4.92892   -7.74403  -17.51258
       H    -2.57219    4.88013  -15.47443
       O    -2.48673    4.70150  -16.46805
      H1    -2.07247    5.56146  -16.66501
       H    -7.05739   -4.43899  -17.04483
       O    -7.81519   -4.25542  -17.63297
      H1    -8.01570   -5.11778  -17.97514
       H     1.24532   -5.26315  -15.58417
       O     1.28686   -6.02154  -14.96338
      H1     0.44242   -6.02597  -14.48250
       H    -5.46715    2.52514  -18.44894
       O    -5.12980    1.59961  -18.32401
      H1    -5.23946    1.27881  -19.24121
       H    -5.73053   -6.42004  -16.07431
       O    -6.58767   -5.96980  -15.86612
      H1    -6.38997   -5.56691  -14.93371
       H     1.61859   -4.55270  -14.11950
       O     1.80777   -3.57883  -13.92888
      H1     1.37836   -3.12341  -14.63058

