180
frame 8 | Written by MDAnalysis XYZWriter (release 2.4.3)
       H   -19.29784   -9.86860  -13.84967
       O   -18.75642   -9.72677  -14.64288
      H1   -17.99592   -9.30616  -14.30127
       H   -10.14849   -6.75600  -17.27891
       O   -10.40559   -7.43289  -17.88678
      H1   -10.64986   -6.95002  -18.67855
       H   -15.95730    3.29059  -13.53663
       O   -15.99783    2.38327  -13.22635
      H1   -15.41234    2.38385  -12.47032
       H   -19.00181    0.54304  -18.62550
       O   -18.27895    1.06208  -18.90675
      H1   -18.62194    1.44934  -19.71373
       H   -16.96882   -3.54914  -15.01212
       O   -17.35860   -2.83206  -15.51916
      H1   -18.24088   -2.72290  -15.00689
       H   -12.89200   -9.13058  -10.23314
       O   -12.92266   -8.77329  -11.13248
      H1   -13.89552   -8.85817  -11.33592
       H   -12.88203   -1.13729  -15.80925
       O   -13.18726   -0.25048  -15.95298
      H1   -14.12243   -0.31599  -15.81829
       H   -10.06915   -6.73208  -14.46321
       O   -10.92041   -7.04840  -14.04615
      H1   -11.24302   -7.69663  -14.76173
       H   -12.30943   -7.04605  -11.52534
       O   -12.21999   -6.10208  -11.43468
      H1   -13.03724   -5.76755  -11.83156
       H   -15.57576   -2.97636  -18.28392
       O   -16.06791   -3.82305  -18.26447
      H1   -15.45635   -4.35852  -17.66992
       H   -16.16461   -4.73879   -8.68239
       O   -16.91811   -4.23339   -8.41406
      H1   -16.57971   -3.59872   -7.78079
       H   -17.87211  -16.49232  -18.66671
       O   -17.99674  -15.63560  -18.29192
      H1   -18.36343  -15.12570  -18.98748
       H   -19.21932    2.34747  -12.44401
       O   -19.17207    1.53932  -11.94486
      H1   -18.93673    1.86974  -11.05628
       H   -17.33895   -1.13703  -12.28418
       O   -18.26286   -1.10088  -11.97152
      H1   -18.40866   -0.12299  -12.14779
       H   -17.81886   -7.20798   -8.82296
       O   -18.65687   -7.46268   -9.26013
      H1   -18.91714   -8.33622   -8.96024
       H    -8.78493  -11.60277  -18.73731
       O    -9.01021  -10.76941  -18.39133
      H1    -8.15037  -10.37105  -18.08786
       H   -12.19009   -3.55035  -11.30908
       O   -12.58681   -3.47202  -12.20744
      H1   -11.85709   -3.83885  -12.77882
       H    -9.76573   -8.33608  -13.24035
       O    -9.00937   -8.71136  -12.82516
      H1    -8.98159   -9.50846  -13.37299
       H   -15.98845  -13.10575  -13.62644
       O   -16.16264  -12.98374  -12.69481
      H1   -15.35367  -12.77037  -12.17827
       H   -14.62071   -0.99474  -18.48464
       O   -15.42730   -1.34589  -18.69912
      H1   -15.92765   -1.02019  -17.87168
       H   -15.83203   -2.42935  -10.77207
       O   -16.52024   -3.06738  -10.74386
      H1   -16.66975   -3.26297   -9.77115
       H   -19.04226   -3.52748  -12.53660
       O   -18.89396   -4.27951  -11.93386
      H1   -18.04850   -3.97121  -11.51745
       H   -17.09196  -12.87903  -15.92303
       O   -16.16192  -13.16688  -15.68976
      H1   -16.04881  -13.98128  -16.27675
       H    -8.99636   -5.10276  -15.72827
       O    -8.87511   -6.09339  -15.64279
      H1    -7.99993   -6.11202  -16.13556
       H   -15.19436  -11.53348  -14.99946
       O   -15.05823  -10.64762  -14.68491
      H1   -15.35000  -10.65631  -13.76820
       H   -10.71916  -11.19189  -12.62809
       O   -11.44917  -10.64197  -12.80519
      H1   -11.32416   -9.87714  -12.20021
       H   -17.11959   -8.45379  -11.61453
       O   -17.40828   -7.54086  -11.64094
      H1   -17.88196   -7.40018  -10.76268
       H   -13.08498  -11.47574  -12.12629
       O   -13.59907  -12.22069  -11.64255
      H1   -13.45619  -11.86033  -10.72304
       H   -12.69633  -14.20205  -17.98393
       O   -13.08541  -14.61544  -18.78287
      H1   -13.72337  -13.96567  -19.12171
       H   -10.09460  -11.10822  -15.42171
       O   -10.85567  -11.03826  -16.05274
      H1   -10.41177  -10.78524  -16.84943
       H   -14.25827   -0.61046  -10.93032
       O   -14.60224   -0.94123  -10.06210
      H1   -13.84647   -1.48126   -9.80811
       H   -17.66335    1.86873  -15.60480
       O   -17.92518    1.18321  -14.98699
      H1   -17.48371    1.36532  -14.15114
       H   -14.21087    3.29750  -16.06488
       O   -14.73606    3.71941  -16.79610
      H1   -15.66870    3.40506  -16.85988
       H   -16.51208  -17.08185  -13.96067
       O   -16.37402  -16.15269  -13.76512
      H1   -16.51443  -15.78892  -14.72560
       H   -15.50563   -8.50746  -18.19983
       O   -15.64841   -8.27876  -19.13998
      H1   -16.66120   -8.00631  -19.05338
       H   -12.06631    0.79318  -17.11783
       O   -11.27980    1.41873  -17.29775
      H1   -10.84131    0.75365  -17.89310
       H   -15.50325   -2.82208  -13.59109
       O   -15.22783   -3.73346  -13.59628
      H1   -14.41160   -3.63733  -13.03684
       H    -8.60555   -8.42664  -17.67433
       O    -7.66586   -8.72259  -17.51986
      H1    -7.58051   -8.87613  -16.53041
       H   -13.36264   -9.42426  -17.25452
       O   -13.51711   -9.95252  -18.02364
      H1   -14.32249  -10.41478  -17.78987
       H    -8.36817   -3.94247  -17.96350
       O    -9.11672   -4.31081  -18.46446
      H1    -8.73892   -4.96111  -19.08991
       H   -17.37167    3.96853  -16.56031
       O   -17.29701    2.97788  -16.64221
      H1   -17.31225    2.89824  -17.58378
       H   -17.13349  -11.43940  -11.41796
       O   -17.14317  -10.45335  -11.44945
      H1   -17.97776  -10.31680  -10.96535
       H   -18.05756   -4.14791  -18.06605
       O   -18.72807   -4.54232  -18.67671
      H1   -19.60119   -4.28460  -18.27752
       H   -17.25417   -9.82605  -18.00974
       O   -17.87076  -10.37013  -18.53080
      H1   -18.17342  -10.96155  -17.84724
       H   -15.90041   -9.63975  -15.89320
       O   -16.29613   -8.98538  -16.53128
      H1   -16.17115   -8.12927  -16.05932
       H   -18.55407   -7.30678  -19.54803
       O   -18.24478   -7.34086  -18.59727
      H1   -18.19886   -6.37603  -18.43622
       H   -12.62420   -3.13845  -14.45714
       O   -12.30548   -2.97246  -15.36941
      H1   -12.69068   -3.82407  -15.72988
       H   -14.47812   -0.15473  -13.00563
       O   -15.33230   -0.59545  -12.98758
      H1   -15.60456   -0.44727  -13.91811
       H   -19.36357  -16.42143  -16.73075
       O   -19.49673  -16.98054  -15.92384
      H1   -18.61601  -17.51039  -15.96710
       H   -16.40450   -5.79690  -15.35241
       O   -15.40398   -5.84436  -15.38097
      H1   -15.11411   -5.25023  -14.63084
       H   -10.25106   -3.10844  -15.56755
       O    -9.27503   -3.09241  -15.63288
      H1    -9.12656   -2.81265  -14.72216
       H   -11.13385  -13.00396  -16.32439
       O   -11.19087  -13.92906  -16.50939
      H1   -11.37992  -14.38186  -15.64462
       H   -18.51617   -5.53336  -14.25226
       O   -18.17095   -5.45274  -15.14150
      H1   -18.21693   -4.54412  -15.45730
       H   -13.46402   -5.45423  -18.33375
       O   -13.63616   -5.07213  -17.43328
      H1   -14.07666   -5.72610  -16.87267
       H   -14.32662   -5.83713   -9.94481
       O   -14.37741   -5.19861   -9.20244
      H1   -13.98940   -5.68594   -8.40832
       H   -16.45417  -15.26436  -17.72563
       O   -15.57076  -15.46998  -17.29851
      H1   -14.84964  -15.21268  -17.92772
       H   -15.80018   -6.43359  -11.72874
       O   -15.02025   -5.86652  -11.78073
      H1   -15.42612   -5.03440  -11.51475
       H   -18.64654  -11.08259  -15.84796
       O   -18.54868  -11.82965  -16.45835
      H1   -19.33585  -12.39443  -16.23436
       H   -16.36867   -1.33670  -15.85031
       O   -15.85217   -0.50897  -15.77600
      H1   -16.54776    0.14868  -15.57732
       H   -11.78463   -9.43456  -15.77586
       O   -12.12880   -8.53521  -15.99847
      H1   -11.53619   -8.15777  -16.65350

