180
frame 11 | Written by MDAnalysis XYZWriter (release 2.4.3)
       H     0.47210   -0.55229    6.60023
       O     0.10226    0.28226    6.26792
      H1    -0.00366    0.18643    5.30836
       H    -0.16785    2.57918   13.62981
       O    -0.66597    2.90543   14.39281
      H1    -0.85625    3.77403   13.96983
       H     6.57970    9.21328   12.56944
       O     6.86022    9.13293   11.62438
      H1     7.25812    8.27001   11.55850
       H    -2.45614    3.32626    6.85824
       O    -3.36174    3.17756    6.40948
      H1    -3.17276    2.41188    5.81639
       H     4.68790    0.14109   10.10221
       O     5.27533   -0.35680   10.71320
      H1     5.08367    0.09770   11.55383
       H     3.37466    8.09950   14.28948
       O     2.52330    7.76642   14.69781
      H1     2.54398    6.89951   14.33578
       H     3.08691    0.79603    8.49071
       O     2.93659    0.93534    9.46457
      H1     2.87529    1.91845    9.50543
       H     8.79972    4.84325    9.73522
       O     9.76864    4.84135    9.79944
      H1     9.97224    3.89872    9.94886
       H     8.28442    3.06772    5.99029
       O     7.90784    2.21488    5.79376
      H1     7.91427    2.09286    4.84748
       H     9.94547    0.19001   11.51812
       O     9.53080    0.98954   11.90455
      H1     9.93149    1.05027   12.80187
       H     6.62097    5.55196    9.95747
       O     7.11788    4.89851    9.32923
      H1     6.39767    4.56579    8.79211
       H     4.42090    9.62380   10.02559
       O     4.25772    9.66461   10.93919
      H1     5.12135    9.34634   11.18328
       H    -0.15645    3.32378   10.06365
       O     0.52327    3.77727   10.59457
      H1     0.01016    4.60633   10.54199
       H     1.85312    3.79325    9.50646
       O     2.79787    3.54912    9.24377
      H1     3.26626    3.88508   10.02866
       H     6.91600   -1.06560   10.93322
       O     7.78707   -1.54163   10.87976
      H1     7.82133   -2.00761   11.75586
       H     5.40411    3.05632    7.67348
       O     5.09985    3.94374    7.57511
      H1     4.22004    3.95650    7.96785
       H    -1.24808   -1.47707    9.71778
       O    -1.49978   -2.25604    9.19338
      H1    -2.43603   -2.42975    9.36547
       H     0.38275   -2.09871    8.02287
       O     1.31325   -1.77796    7.75133
      H1     1.41471   -2.26120    6.96246
       H     6.43789    6.05579   11.76732
       O     5.69160    6.34223   11.19431
      H1     5.04726    5.67068   11.51151
       H     1.57535    0.30835   11.88127
       O     1.58671   -0.62969   11.64112
      H1     2.04120   -0.74288   10.77157
       H     2.06964    1.42399    6.57045
       O     2.91155    0.99219    6.72994
      H1     2.82969    0.41481    5.96911
       H    -1.85916    1.78352   13.43147
       O    -2.31696    1.11310   12.99257
      H1    -3.16991    1.09066   13.36223
       H    -2.33507    2.89002   10.23702
       O    -2.70486    3.67222   10.69370
      H1    -2.94187    3.28440   11.56572
       H     3.02821    4.64086   12.31553
       O     3.71303    4.45314   11.63852
      H1     4.24417    3.80663   12.18713
       H     3.96538   -0.84613    4.66336
       O     3.21374   -1.22927    5.13249
      H1     3.68858   -1.38367    5.98808
       H     7.75026    0.23763   13.19434
       O     6.98739    0.42597   13.79370
      H1     6.39947    0.99099   13.23613
       H     8.97226    6.28977   12.54667
       O     8.41653    6.58033   11.79391
      H1     9.20519    6.61308   11.15566
       H     4.16857    5.86632   16.37556
       O     4.33362    5.07976   15.84163
      H1     5.06522    4.67867   16.37023
       H     1.14158    9.46173    8.18333
       O     1.36588   10.36026    7.93546
      H1     1.56109   10.27859    7.03834
       H    -1.62596    9.30673   12.71638
       O    -0.75384    9.63880   12.81553
      H1    -0.37967    8.89891   12.35876
       H     5.30349    9.20493    8.12513
       O     4.77042    9.96631    8.02845
      H1     4.21566    9.71408    7.32776
       H    -0.93287    1.49153    9.27777
       O    -1.13370    2.22680    8.70322
      H1    -0.80391    1.85717    7.86917
       H     6.84684    1.66206    6.91564
       O     6.17659    1.34530    7.56669
      H1     6.55045    1.40734    8.46212
       H     3.01100    3.18825    4.11072
       O     2.28591    3.44544    3.56076
      H1     2.31519    2.67076    3.03983
       H     2.96339   -3.26508   12.28360
       O     2.30375   -3.16409   12.94798
      H1     1.89986   -2.36832   12.60828
       H     0.48274    3.36805    4.16289
       O    -0.35138    3.63190    4.67958
      H1     0.08652    4.23537    5.28012
       H     3.79482    2.27843   16.99177
       O     2.90780    2.04693   17.35951
      H1     3.03187    2.39432   18.25063
       H     4.19085   -2.16632    9.25182
       O     3.29669   -2.41801    9.54420
      H1     2.72164   -2.09595    8.83758
       H     4.60529   10.05781   14.07121
       O     4.62281    9.16817   13.73232
      H1     4.35868    9.32636   12.81932
       H     3.02435   -0.99225   14.79584
       O     3.23226   -0.62026   15.64151
      H1     4.21761   -0.59920   15.64844
       H     1.69622    2.47645   13.19282
       O     0.99445    2.14553   12.56901
      H1     1.09067    2.77150   11.79241
       H    -0.04491    6.89420    9.09453
       O     0.66751    7.53566    8.77463
      H1     1.48023    6.96311    8.79148
       H     5.88077   -0.44033    7.10997
       O     5.38791   -1.26389    6.87190
      H1     5.75370   -1.83745    7.48209
       H     3.99418    7.05003    8.94569
       O     3.31076    6.47879    8.70331
      H1     3.65903    6.31491    7.81540
       H    -1.25552    5.90473   14.24863
       O    -1.14643    5.33819   13.41864
      H1    -2.03978    5.29360   13.11089
       H    -1.51410    0.47333   11.67906
       O    -0.94213    0.43565   10.87441
      H1    -0.28403   -0.10572   11.30283
       H    -1.87923    5.22598   10.00288
       O    -1.29638    5.98701    9.85343
      H1    -1.31916    6.42250   10.74513
       H     7.44201    7.46455    6.79446
       O     7.70444    7.66161    5.86214
      H1     6.95499    7.34715    5.41128
       H     1.17452    4.88644   13.63640
       O     2.11760    5.16483   13.66715
      H1     2.52683    4.50420   14.31022
       H     7.27243    8.63920    8.58782
       O     6.55944    7.94131    8.36608
      H1     6.73777    7.27609    9.06473
       H     5.63118    2.87150   12.73868
       O     5.39034    2.03023   12.32573
      H1     5.94332    2.06984   11.48908
       H     1.53442    6.04790    6.21229
       O     0.56437    6.16463    6.40145
      H1     0.62366    6.76182    7.12819
       H     4.41659    2.10903    5.72460
       O     4.69195    2.19733    4.80819
      H1     5.60818    2.45306    4.68301
       H     8.09063    1.63783    9.65773
       O     7.24634    2.08130    9.90539
      H1     7.44522    2.99059    9.53663
       H     3.06588    1.50450   14.75160
       O     2.95295    2.44219   14.71987
      H1     2.51816    2.59121   15.58098
       H     4.49704    5.43199    5.85164
       O     3.89970    6.24688    6.00917
      H1     3.68149    6.52170    5.10627
       H     1.01156    7.00978   11.93413
       O     0.20481    7.49257   11.47076
      H1     0.62392    7.82292   10.65655
       H     5.79676    4.78622   14.13871
       O     6.33382    4.48898   13.41251
      H1     7.20433    4.20637   13.78148
       H     5.69581    0.40796    4.67299
       O     5.66073   -0.30212    3.99591
      H1     5.28365    0.15096    3.27263
       H    10.43761    1.21079    8.07801
       O     9.84366    1.52157    8.75488
      H1    10.49984    1.78620    9.45670

