180
frame 5 | Written by MDAnalysis XYZWriter (release 2.4.3)
       H     1.77223    3.53338   -9.02787
       O     1.56890    4.52291   -8.97897
      H1     1.35673    4.76614   -9.84966
       H    -1.14978    0.45008  -14.29443
       O    -1.98815    0.20227  -13.86691
      H1    -2.71208    0.73225  -14.26921
       H    -2.27989   -2.87332  -13.82987
       O    -2.76757   -2.44789  -14.54066
      H1    -2.38187   -1.56672  -14.45318
       H    -5.88575   -2.80683  -10.15596
       O    -6.64412   -2.73795   -9.55872
      H1    -6.58716   -1.80985   -9.31617
       H     2.77997    1.30723   -9.16430
       O     2.24335    1.99240   -9.61541
      H1     1.75758    1.40906  -10.18121
       H    -0.14150   -2.75706   -6.88371
       O     0.42481   -2.71038   -6.11067
      H1     0.50521   -3.63552   -5.80768
       H     3.81175    2.89408  -10.83809
       O     4.68378    3.02111  -11.26239
      H1     4.70400    3.94882  -11.43192
       H     2.89358    1.73774  -13.25784
       O     3.79400    1.33640  -13.19626
      H1     4.19041    1.99776  -12.60355
       H     6.83845   -5.61690  -11.31521
       O     7.12620   -4.85660  -11.75563
      H1     6.35833   -4.61829  -12.29559
       H     3.68358   -2.78346  -10.93377
       O     3.59086   -3.36484  -10.15222
      H1     3.50952   -2.64814   -9.47128
       H     6.89173    0.95030  -12.46214
       O     6.82529    0.77250  -13.41063
      H1     5.89697    0.95697  -13.54533
       H     1.13262   -2.98426  -12.37372
       O     0.65849   -2.78074  -11.56510
      H1     1.03607   -3.46012  -11.03297
       H     0.68279    3.04057  -13.16432
       O     1.61802    3.37087  -13.11853
      H1     1.59355    4.01469  -13.84901
       H     5.25138   -3.93514   -6.15261
       O     6.04024   -3.41276   -5.97185
      H1     6.77072   -3.82731   -6.48720
       H    -1.26735    1.41325  -12.71574
       O    -0.84462    2.03377  -12.15139
      H1    -1.55862    2.50862  -11.73878
       H     3.42881   -8.47139   -7.48030
       O     3.24106   -8.01792   -8.32399
      H1     3.44817   -8.79645   -8.85816
       H     2.75805   -4.30340   -5.25160
       O     3.20363   -4.59226   -6.10634
      H1     2.50351   -5.17621   -6.47658
       H    -2.07533   -5.02899  -11.03867
       O    -2.25917   -5.45588  -10.19325
      H1    -2.72398   -4.73483   -9.76848
       H     1.89026   -0.93449  -10.25482
       O     1.01574   -0.57782  -10.28933
      H1     0.68892   -1.24992  -10.95762
       H     1.90128   -2.23838   -7.32236
       O     2.88817   -2.32481   -7.39237
      H1     3.03319   -3.19599   -6.93117
       H     2.79702   -4.70832  -10.73553
       O     2.11567   -5.39793  -11.04467
      H1     1.69683   -5.58574  -10.20753
       H    -0.92639   -7.66573  -13.10888
       O    -0.50400   -6.81156  -12.99161
      H1     0.07136   -7.09783  -12.22201
       H     3.01327   -6.97940  -15.21625
       O     3.94661   -7.20020  -15.42508
      H1     3.86005   -7.23251  -16.36119
       H     1.25821  -10.51823  -10.41150
       O     0.74102  -10.00041  -10.99958
      H1     1.42382   -9.44500  -11.40425
       H     2.78949   -7.31480  -12.29989
       O     2.34767   -8.20117  -12.10140
      H1     2.26326   -8.61258  -12.97980
       H     2.03247    0.87652  -15.88940
       O     2.84464    1.45277  -15.88991
      H1     3.15552    1.35788  -14.98636
       H    -1.15463   -4.92533  -16.61630
       O    -1.37915   -4.89823  -15.70578
      H1    -1.84284   -4.04830  -15.61026
       H     3.80375   -0.47809  -12.67478
       O     3.75520   -1.42693  -12.41297
      H1     3.96130   -1.76939  -13.33415
       H    -1.70337   -1.33691  -17.70176
       O    -1.84391   -0.80306  -16.86740
      H1    -2.77961   -1.06021  -16.78629
       H    -2.95526   -7.96016  -14.09787
       O    -3.60468   -7.24031  -14.21196
      H1    -4.27236   -7.67333  -14.77401
       H     6.16208   -1.78318  -10.44043
       O     5.78172   -0.91562  -10.59572
      H1     5.27870   -1.14588  -11.43010
       H    -0.73388   -3.81966  -12.01389
       O    -1.44740   -4.32928  -12.47574
      H1    -1.12349   -5.23989  -12.74911
       H     0.81098   -7.88980  -16.94574
       O     0.57508   -8.31857  -16.12594
      H1     0.56892   -7.61350  -15.47064
       H    -1.89634   -3.05104   -7.56934
       O    -1.23407   -2.66149   -8.14988
      H1    -1.41030   -1.71048   -8.05409
       H    -3.21063   -4.68001  -16.51267
       O    -3.74287   -4.39207  -17.29708
      H1    -3.92003   -3.44582  -17.04300
       H     1.71856   -4.94250  -17.77949
       O     2.61736   -4.74900  -17.42446
      H1     2.88394   -4.18289  -18.14462
       H     1.57523   -8.31871   -8.83104
       O     0.58590   -8.30830   -8.99092
      H1     0.56459   -8.78912   -9.83624
       H    -0.79914   -4.33952  -18.35206
       O    -0.27095   -5.07355  -18.01106
      H1    -0.67383   -5.79907  -18.46377
       H    -3.37276    0.80911   -6.90273
       O    -3.22193    1.30249   -6.08650
      H1    -4.15780    1.27192   -5.77851
       H    -1.22667    1.20791   -8.02682
       O    -0.96735    0.34837   -8.39254
      H1    -0.40003    0.55709   -9.21018
       H    -4.55066   -0.62773  -11.60541
       O    -4.36230    0.21305  -11.09867
      H1    -4.86800    0.93106  -11.43352
       H    -2.43877   -3.99327   -5.57401
       O    -2.43445   -4.71327   -6.23404
      H1    -1.56849   -5.08595   -6.10595
       H     3.47418   -2.75226  -14.75600
       O     4.41938   -2.51481  -14.86594
      H1     4.41078   -2.18536  -15.78336
       H     0.36042   -5.84370   -6.91411
       O     0.27817   -5.69445   -5.94734
      H1     0.47142   -6.54175   -5.56369
       H    -0.56178   -5.37554   -9.20780
       O     0.31476   -5.68212   -8.81670
      H1     0.17230   -6.66759   -8.84294
       H     2.18700   -0.71503   -4.40086
       O     2.13131    0.13057   -4.87714
      H1     2.30183   -0.20145   -5.76641
       H     5.80668   -3.33004  -14.76325
       O     6.59401   -3.92789  -14.66469
      H1     7.26177   -3.24634  -14.33969
       H     4.19528   -6.37607   -8.59472
       O     4.76781   -5.57872   -8.54422
      H1     4.15335   -5.02930   -9.04136
       H    -4.01359   -7.30493  -12.43386
       O    -3.99485   -7.50139  -11.45971
      H1    -3.38285   -6.85565  -11.09554
       H     5.79529   -6.47922   -9.56908
       O     6.31082   -7.01188  -10.14673
      H1     5.59916   -7.26865  -10.80540
       H     4.32855   -0.67494   -9.67756
       O     3.64592   -0.25840   -9.08005
      H1     3.61036   -0.92162   -8.35108
       H    -2.74773    0.25010   -8.65529
       O    -3.68378    0.07864   -8.41334
      H1    -4.12324    0.21027   -9.30935
       H    -4.15355   -2.25248  -13.27060
       O    -4.89269   -1.98223  -12.72417
      H1    -5.45598   -2.76148  -12.69308
       H    -3.87042   -1.87709   -8.79039
       O    -3.62672   -2.70406   -9.20049
      H1    -2.69403   -2.75603   -9.00520
       H     5.19644   -7.66532  -14.18991
       O     5.43654   -8.05476  -13.31958
      H1     4.98515   -8.92536  -13.45784
       H     4.07783   -0.75740  -17.59220
       O     4.56748   -1.57307  -17.42589
      H1     4.56597   -1.96507  -18.31635
       H     0.13487    1.18912  -15.30217
       O     0.22179    0.21758  -15.32031
      H1    -0.56180   -0.05709  -15.80611
       H    -4.97480   -2.93476   -7.65394
       O    -5.16449   -2.85288   -6.70629
      H1    -6.15884   -2.90469   -6.70059
       H     1.24532   -5.26315  -15.58417
       O     1.28686   -6.02154  -14.96338
      H1     0.44242   -6.02597  -14.48250
       H     1.61859   -4.55270  -14.11950
       O     1.80777   -3.57883  -13.92888
      H1     1.37836   -3.12341  -14.63058

