180
frame 11 | Written by MDAnalysis XYZWriter (release 2.4.3)
       H     6.37330   17.16853    1.98695
       O     6.05434   16.36289    2.42403
      H1     6.27616   16.50049    3.32164
       H    11.13999   12.77879   11.10453
       O    10.65793   13.38853   10.48463
      H1     9.66666   13.21103   10.61928
       H     5.55397   18.18844   14.02928
       O     5.43446   17.85193   14.93238
      H1     6.19097   18.38565   15.32635
       H     5.12971   12.01061    9.52915
       O     5.25809   12.32404   10.43144
      H1     5.04083   11.52646   10.97944
       H    10.71949   18.54377   14.98409
       O    10.39795   17.69877   15.34636
      H1    11.19400   17.18569   15.43202
       H     3.51077   14.22104    1.42100
       O     3.10735   13.94541    2.25851
      H1     3.76491   13.36409    2.60978
       H     7.22786   19.02649    0.57029
       O     6.35193   18.92532    1.06923
      H1     5.83948   18.50789    0.35156
       H    11.53756   19.28551   12.31533
       O    11.85640   18.92631   11.50599
      H1    11.67128   17.97656   11.59113
       H     4.10208   18.77751    3.39429
       O     4.51688   19.62994    3.40911
      H1     4.96948   19.58454    2.60295
       H     5.16872   17.29272   11.43198
       O     5.26848   18.02096   12.06606
      H1     5.82698   18.53533   11.51221
       H    12.49358   18.95681    4.29485
       O    13.28468   19.24349    4.75968
      H1    12.70801   19.87479    5.28101
       H     2.06609   15.50488   13.78752
       O     2.95100   15.77047   13.66441
      H1     2.91789   16.66914   14.06224
       H    12.18581   15.71685   10.55729
       O    11.33896   16.03639   10.96853
      H1    10.88137   15.23721   10.65075
       H     9.85615   17.05659   11.27333
       O     8.93027   17.16890   11.52656
      H1     8.94713   18.05671   11.84762
       H    10.51460   14.43838   15.91420
       O    11.16627   14.42435   15.13898
      H1    10.58171   14.62851   14.34606
       H    -1.73807   14.22149    4.92250
       O    -1.52942   14.68789    5.78583
      H1    -0.61598   14.47655    6.01469
       H     8.89390   15.26719    2.53641
       O     9.60895   15.81597    2.19195
      H1     9.57478   16.61323    2.73212
       H     1.69757   18.68884   12.82245
       O     1.55517   18.54660   13.77305
      H1     0.57998   18.66115   13.83430
       H     8.87453   13.71145   12.80038
       O     9.23143   14.48150   13.35428
      H1     8.88722   15.24669   12.87491
       H     5.30349    9.20493    8.12513
       O     4.77042    9.96631    8.02845
      H1     4.21566    9.71408    7.32776
       H     3.75053   17.11645    1.32793
       O     3.67190   17.46778    0.40512
      H1     3.39005   16.64867   -0.07024
       H     2.18396   12.22821    8.64997
       O     3.01257   12.73080    8.52159
      H1     2.79212   13.61688    8.94555
       H     2.93264   16.72818   10.64518
       O     3.15869   16.95738    9.82778
      H1     2.54416   16.57506    9.22921
       H     9.11564   13.57048    7.33336
       O     9.10086   14.51032    7.71022
      H1     8.57942   14.91515    6.99542
       H     6.60135   15.10281    5.97106
       O     7.50064   15.44272    5.66043
      H1     7.62339   14.88253    4.89697
       H     3.42855   16.93990    5.17586
       O     4.04630   16.83376    5.88795
      H1     3.65446   17.48136    6.43718
       H     3.69040   14.35598   12.15772
       O     3.33736   13.78445   11.41903
      H1     4.18392   13.41636   11.07176
       H    13.24647   18.33042    8.20697
       O    14.00881   18.96461    8.11986
      H1    14.64423   18.44695    8.63948
       H    10.00647   11.42592    7.48755
       O     9.28161   11.76985    6.91241
      H1     8.76731   10.96350    6.95637
       H     9.37391   18.73614    8.88953
       O     8.77913   18.00065    8.83342
      H1     8.71047   17.65940    9.77188
       H     5.64028   17.72750    9.22479
       O     5.97576   18.21155    8.40273
      H1     6.94493   17.91937    8.29522
       H    10.50846   18.00098    4.66420
       O    11.16471   17.45731    4.14120
      H1    11.41460   16.74146    4.70953
       H     1.47090   14.12408   11.57758
       O     0.53732   14.10607   11.66771
      H1     0.32149   13.31033   11.24606
       H     8.30343   13.09388    3.58840
       O     7.75757   13.90884    3.24657
      H1     6.83690   13.52240    3.33721
       H     4.35541   10.66908    5.34755
       O     5.31633   10.76903    5.22268
      H1     5.46677    9.95752    4.77865
       H     1.50071   19.46296    8.72539
       O     2.44559   19.45554    8.54036
      H1     2.68535   18.64517    8.97677
       H     5.60126   16.21126   14.96625
       O     5.60998   15.29354   15.33477
      H1     6.56168   15.09070   15.25253
       H    -0.45547   16.26730    9.57776
       O     0.17911   16.91893    9.45122
      H1     0.33277   16.92445    8.46255
       H     5.93597   11.86549    7.09724
       O     6.59074   12.27297    7.66412
      H1     6.33196   13.20885    7.44339
       H     0.08885   17.05183    6.43911
       O     0.94576   17.51842    6.53648
      H1     0.71002   18.38831    6.27874
       H    -0.66108   18.62581    9.20080
       O    -0.45761   19.57246    9.04143
      H1    -0.50286   19.56939    8.07918
       H     4.88891   15.59552    7.00070
       O     5.41590   14.79153    7.10982
      H1     4.85983   14.15578    6.69428
       H     4.48368   12.33833   14.11048
       O     5.35205   12.71033   14.38836
      H1     5.17784   13.66995   14.45077
       H    -2.51632   18.28333    7.64811
       O    -1.93420   18.38255    6.81899
      H1    -2.56230   18.12123    6.07041
       H    11.18212   16.87845    8.95940
       O    11.73514   17.29705    8.26876
      H1    11.08363   17.44541    7.51901
       H     6.78188   14.67025    1.09267
       O     6.84267   13.88824    0.54768
      H1     6.38508   14.15941   -0.28202
       H     4.44239   16.73747    3.44801
       O     3.47827   16.83670    3.33910
      H1     3.21954   15.92089    3.46703
       H     8.75462   18.69502    6.53989
       O     9.44601   18.80585    5.90176
      H1     9.87205   19.56050    6.25309
       H    13.80953   16.14704    6.53191
       O    13.19295   15.55455    6.98992
      H1    12.76142   16.17901    7.63387
       H     1.40537   19.22394    2.68875
       O     0.95648   19.16993    3.55017
      H1     0.67068   18.24286    3.41228
       H    10.32005   14.51745    6.45268
       O    10.85283   14.55586    5.64715
      H1    11.75557   14.67629    6.00031
       H     6.92691   13.33312    9.83493
       O     7.82005   13.71179    9.95608
      H1     8.03864   13.99431    9.02031
       H     5.54093   15.19234    9.86694
       O     5.84016   15.93221   10.40792
      H1     6.69461   15.59560   10.73407
       H     7.72831   10.76756    8.68653
       O     8.05583   10.02660    9.19400
      H1     7.45767   10.10208    9.92071
       H     6.96264   12.51882   12.16890
       O     7.55827   12.19256   12.82499
      H1     7.16697   12.37590   13.68693
       H     9.87839   11.59578    3.36562
       O     9.28421   11.68835    4.10174
      H1     9.84289   12.14797    4.75616
       H    11.39171   11.93597    8.99590
       O    11.30944   11.11926    8.47759
      H1    12.20041   10.95990    8.18889
       H     8.30878   14.31581   14.80931
       O     8.01339   14.32440   15.73216
      H1     7.86893   13.36681   15.89601
       H     5.80525   12.13962    2.25970
       O     5.41137   12.56316    3.02758
      H1     5.40036   11.84729    3.65819
       H    11.37798   17.70719    2.12179
       O    11.55469   18.33257    1.36373
      H1    11.36995   19.17019    1.85545

