180
frame 1 | Written by MDAnalysis XYZWriter (release 2.4.3)
       H    -3.51261    8.29768    9.99295
       O    -3.05425    7.48337    9.65507
      H1    -2.60667    7.84057    8.87834
       H    -9.34156    6.79363   13.86788
       O    -9.39164    7.73488   13.54046
      H1    -9.29787    8.11198   14.43850
       H     0.58272   15.25641   16.68843
       O     1.28413   15.48768   17.32913
      H1     0.77271   15.42110   18.15217
       H    -7.84175   16.10901   17.70587
       O    -8.80659   16.16137   18.07470
      H1    -9.29180   15.80450   17.30612
       H     0.50157   11.41306   13.49705
       O     0.37926   11.85176   12.67030
      H1     0.88325   11.35205   12.06876
       H    -8.41698   14.06855   14.29038
       O    -9.00313   14.80966   14.20669
      H1    -9.40462   14.81545   13.33169
       H    -3.31554   11.44985   12.54889
       O    -2.48978   10.97905   12.74551
      H1    -1.73903   11.61160   12.59082
       H    -3.54159    7.71536   18.49319
       O    -3.01178    7.55283   19.34075
      H1    -3.12421    6.61098   19.58745
       H    -2.75404   17.94643   11.48277
       O    -3.28053   18.46947   12.12252
      H1    -2.83677   19.36899   12.05876
       H    -0.44181   12.33292    8.66448
       O    -0.67549   12.35232    9.61444
      H1    -0.00519   11.70245    9.86309
       H    -6.13178   14.95071   12.75024
       O    -6.21973   14.79315   13.69538
      H1    -5.51623   15.43314   14.00714
       H    -0.84526   15.20027   15.63579
       O    -0.10189   15.09283   15.02339
      H1    -0.51820   15.17944   14.15508
       H    -8.96770   18.53993   12.50950
       O    -9.50713   19.29694   12.26946
      H1   -10.19098   18.84049   11.77960
       H    -2.16967   10.26091   18.80904
       O    -2.78352   10.87564   19.19196
      H1    -2.15479   11.58432   19.40796
       H    -8.78334   11.79037   11.76715
       O    -9.35102   12.36041   12.35003
      H1   -10.02815   11.75887   12.71941
       H    -6.58027   10.91836   14.98061
       O    -6.40502   10.20746   15.61007
      H1    -6.23732    9.41907   15.05061
       H    -6.48062    6.98446   13.90682
       O    -6.49987    7.60581   14.68353
      H1    -7.27691    7.27625   15.17749
       H     0.65498   16.63708   14.69751
       O     1.11593   17.35533   14.26165
      H1     1.44972   16.85231   13.44006
       H   -11.16471   10.41831   14.85739
       O   -11.26128   10.60133   13.90640
      H1   -10.85633    9.83610   13.44940
       H    -8.24013   10.02667   18.21432
       O    -8.33371    9.59442   17.36326
      H1    -7.71059   10.12142   16.84121
       H    -9.47613   19.26139   17.93101
       O    -9.46716   18.65636   17.14552
      H1    -9.25183   17.78814   17.56192
       H     0.17996    7.07254   15.93058
       O    -0.12825    7.32890   15.07310
      H1    -0.98054    6.90978   15.22746
       H    -6.20711   14.32429    9.11199
       O    -6.65966   14.06930    8.31040
      H1    -6.26420   14.79441    7.71836
       H    -5.74407   16.40336   18.29255
       O    -6.11191   16.10972   17.45939
      H1    -5.99349   16.93306   16.89503
       H    -6.85488   13.17452   13.89289
       O    -7.35446   12.41980   14.27590
      H1    -8.11601   12.20994   13.67496
       H   -11.00599   15.81003   11.34507
       O   -10.36390   16.39389   11.85098
      H1    -9.84057   16.85732   11.19521
       H     1.26455   11.23919   15.39692
       O     0.56434   10.57007   15.28748
      H1     0.90261    9.75707   15.67879
       H   -10.05589    7.62261   19.01372
       O    -9.84979    8.21538   19.75004
      H1    -8.87451    8.02372   19.80603
       H    -2.38431   13.52904   17.45106
       O    -1.61911   14.09919   17.28948
      H1    -1.01088   13.33222   17.26229
       H    -0.14895   18.61991   13.65061
       O    -0.54605   19.33199   13.14923
      H1    -1.47453   19.22192   13.39276
       H    -7.65770   11.00803    9.99046
       O    -7.38100   10.77182   10.90446
      H1    -6.66674   11.40361   11.10939
       H    -3.68999   15.02661   15.40598
       O    -3.80360   15.77971   14.80840
      H1    -3.49734   16.54901   15.38746
       H   -11.69707   15.09400   16.20885
       O   -10.70939   15.17806   16.30610
      H1   -10.41384   14.72994   15.50175
       H   -10.73626   13.14877   11.59593
       O   -11.57817   13.27335   11.12690
      H1   -11.82532   12.41654   10.69727
       H     0.89299   15.06545   11.38811
       O     0.94840   15.81044   12.02672
      H1     0.17017   15.72708   12.52531
       H    -5.82958    9.60974   10.83868
       O    -5.15643    9.01512   11.14678
      H1    -4.81393    9.44486   11.96667
       H    -4.22850   12.85908   11.59006
       O    -4.87349   12.50153   12.22570
      H1    -4.73048   12.76707   13.17333
       H    -4.83797   13.15515   15.76270
       O    -4.48708   12.67793   14.99936
      H1    -3.51788   12.66478   15.26710
       H    -6.62405   16.92946   11.14402
       O    -6.40794   16.79328   10.20500
      H1    -7.29010   16.93130    9.82301
       H    -2.00849   13.50323   10.38489
       O    -2.75863   13.87192   10.89477
      H1    -2.80654   14.80154   10.61684
       H    -3.42438   17.72093    9.46587
       O    -2.95063   16.98271    9.83386
      H1    -2.05919   17.09818    9.47849
       H    -5.03338   14.82137   17.47529
       O    -4.58932   13.95660   17.47734
      H1    -5.08314   13.46952   18.12640
       H    -2.32994   14.84126   12.39275
       O    -1.77457   15.51467   12.87980
      H1    -2.42234   15.75913   13.53884
       H     0.45637    9.95966   17.69304
       O    -0.25456    9.81615   18.35790
      H1    -0.53651    8.92797   18.16351
       H    -7.48813   18.74308   16.71907
       O    -6.56502   18.59295   16.46390
      H1    -6.10676   19.44679   16.47233
       H    -2.38470    5.68656   15.77914
       O    -2.53108    6.33569   15.10390
      H1    -2.96112    7.10387   15.51549
       H    -2.23183   10.77268    9.13463
       O    -2.90951   10.20855    8.75583
      H1    -3.55600   10.94279    8.66276
       H    -7.52081   17.68550   14.12142
       O    -7.75778   17.35274   13.23147
      H1    -8.15413   16.51501   13.54135
       H    -5.93576    7.18332   11.84369
       O    -6.05270    6.27990   12.20907
      H1    -6.96420    6.13956   11.90192
       H     1.25051   12.46945   18.11573
       O     0.99078   12.61744   17.18228
      H1     0.97265   13.56831   17.08657
       H     0.35204    8.48517   12.11992
       O     0.98876    8.32216   12.79068
      H1     0.42774    8.00739   13.51194
       H   -10.22343    9.77117   16.83928
       O   -11.04328    9.46255   16.48284
      H1   -11.57698    9.44411   17.28748
       H    -2.27541   10.86425   14.63112
       O    -2.27657   11.08099   15.57590
      H1    -1.35421   10.85471   15.77367
       H    -3.34678    9.37643   16.38679
       O    -3.57915    8.56188   16.71163
      H1    -4.52961    8.57595   16.51268
       H    -5.24921   18.03956    9.86508
       O    -4.80527   18.88144    9.98456
      H1    -4.42874   18.76088   10.87971
       H   -10.98822   18.53857   15.23622
       O   -11.54237   17.72649   15.03406
      H1   -11.06670   17.06295   15.64354
       H    -1.32533   17.69164   18.65804
       O    -2.23318   17.27251   18.59632
      H1    -2.09238   16.30751   18.76092
       H    -7.98666    6.18168   17.19469
       O    -8.57552    6.82879   16.72843
      H1    -8.28579    7.66896   17.12817
       H    -3.26538   17.68233   17.08514
       O    -3.23914   18.12971   16.18898
      H1    -2.70189   18.91260   16.34924
       H    -9.63514   14.96287   19.00492
       O   -10.34361   14.30549   19.40412
      H1   -10.99089   14.35561   18.70072

