180
frame 4 | Written by MDAnalysis XYZWriter (release 2.4.3)
       H     5.45933   -1.72345    3.01804
       O     5.40856   -0.91055    2.55936
      H1     6.24373   -0.41774    2.68334
       H    -3.06042    5.29347    0.29345
       O    -2.87904    4.59207   -0.34032
      H1    -2.54415    3.91792    0.24761
       H     0.53002    3.95091    3.88330
       O     0.22475    4.85520    4.08836
      H1     0.62730    5.37765    3.41614
       H    -0.70122   -2.59293   -4.45533
       O    -1.01926   -1.76577   -4.09312
      H1    -0.34382   -1.35321   -3.51358
       H     2.94056    3.90438    8.70614
       O     3.31950    4.58223    9.25486
      H1     3.98192    4.17454    9.80359
       H     0.11205    5.23647    5.79968
       O    -0.03032    5.31933    6.77809
      H1     0.41957    6.13227    7.12543
       H     3.19178    4.46489    0.77218
       O     3.67608    3.87054    0.17752
      H1     2.95979    3.46133   -0.29957
       H    -1.82345   -4.87081    0.48664
       O    -2.14173   -4.94761   -0.42014
      H1    -1.42642   -4.79410   -1.00990
       H     0.55751    2.86068    0.59642
       O     0.74481    2.76328   -0.38467
      H1     0.53212    1.79497   -0.46306
       H     3.71875   -2.46765    6.71391
       O     4.18779   -3.33175    6.93701
      H1     3.51788   -4.03297    7.04634
       H     2.96320    7.21500    6.05092
       O     2.61058    6.96933    5.20629
      H1     2.94845    6.09447    5.08627
       H     4.10585    0.14189    3.88876
       O     3.32381    0.37852    4.40173
      H1     3.45439    1.35344    4.60686
       H    -0.97944   -2.44830    4.34036
       O    -0.07606   -2.46046    4.49771
      H1     0.02874   -2.57531    5.45709
       H    -3.66259    7.49977    1.22951
       O    -3.79895    6.58321    1.47140
      H1    -3.25761    6.40275    2.27542
       H     1.35283   -1.45006   -1.53101
       O     1.57471   -2.27161   -1.95637
      H1     1.99692   -2.11637   -2.75903
       H     5.92640    5.27207    3.88853
       O     5.64459    4.62396    4.55676
      H1     5.73723    4.99335    5.47074
       H     0.20410   -3.40537   -2.31442
       O    -0.36152   -4.20808   -2.42698
      H1     0.12418   -4.76178   -3.06037
       H     4.50614   -3.47649    5.03128
       O     4.94903   -3.39605    4.17255
      H1     4.28930   -3.64499    3.50910
       H    -3.05525    1.64937    3.61569
       O    -3.76969    2.29709    3.65861
      H1    -4.49440    2.01157    3.09141
       H     0.63439    6.19963    1.14754
       O     1.55165    6.26607    1.51648
      H1     1.65481    7.22281    1.65677
       H     2.05870   -3.91887    2.19391
       O     1.87416   -4.01242    3.09962
      H1     1.15298   -3.43466    3.31630
       H     5.28843    2.20873   -0.13737
       O     6.10522    2.39572   -0.64493
      H1     5.93910    3.02426   -1.37897
       H    -0.69113    5.80897   -2.58022
       O    -1.05352    4.94064   -2.35640
      H1    -1.62610    4.87598   -1.53362
       H     4.76429    0.86002   -2.89618
       O     3.91862    0.75719   -2.41610
      H1     4.20931    0.48862   -1.54025
       H     0.77711   -3.66463    8.61286
       O     0.13185   -3.20301    9.20284
      H1    -0.18923   -2.53182    8.59755
       H    -5.40079    2.21127    0.79821
       O    -5.75303    1.68070    1.59680
      H1    -5.60731    0.70637    1.28628
       H     3.96724    0.34494    9.85969
       O     3.57818    0.22501    8.99228
      H1     4.11402    0.80895    8.42548
       H     1.80448    4.75289   -2.62288
       O     2.11440    3.87666   -2.32981
      H1     1.55282    3.41669   -1.68646
       H     2.61259    6.86186    0.05037
       O     3.16879    7.08524   -0.64800
      H1     2.71944    7.10083   -1.50346
       H    -5.50840   -0.37095    5.85715
       O    -5.19076   -1.27531    5.65089
      H1    -5.81027   -1.72716    5.07053
       H    -0.95978   -0.43731   -1.09691
       O    -0.20389    0.14768   -1.32951
      H1    -0.39311    0.76823   -2.07914
       H     1.71686    0.29510    3.94707
       O     0.78868    0.01316    3.78755
      H1     0.71438   -0.91891    4.16291
       H    -1.72248    5.73818    3.93671
       O    -2.10279    6.60370    3.73003
      H1    -2.73187    6.86019    4.33263
       H    -1.62571    6.77182    8.73259
       O    -2.16838    6.99770    7.91562
      H1    -1.71933    6.61080    7.16331
       H    -4.58672   -0.85266   -0.03493
       O    -5.15075   -0.93978    0.82313
      H1    -6.04021   -1.18587    0.51815
       H     0.98780   -1.37064    7.05499
       O     0.06591   -1.60002    7.13232
      H1    -0.45052   -0.87998    6.76584
       H    -1.36761    8.21898    2.93351
       O    -1.37055    8.70013    2.06989
      H1    -2.21768    9.19148    2.13701
       H     0.03004    2.86358   -3.25288
       O     0.01802    1.90149   -3.36855
      H1     0.86357    1.58092   -3.65217
       H     5.78589    1.55222    7.43887
       O     4.87926    1.94825    7.46466
      H1     4.91582    2.47462    8.25603
       H    -5.94546    1.59888    6.88154
       O    -5.86851    1.38766    5.95928
      H1    -4.99385    1.76155    5.79648
       H    -1.10009    7.37228    1.04349
       O    -0.89647    6.78492    0.29423
      H1    -0.70560    7.42704   -0.43202
       H     2.97770   -0.29980    6.09567
       O     2.80212   -0.93421    6.85046
      H1     3.26256   -0.40598    7.58323
       H    -3.63380   -1.19032    4.86574
       O    -2.85471   -0.95418    4.41554
      H1    -2.42805   -0.29645    5.00433
       H    -1.16476    2.71396    8.46874
       O    -0.65116    2.39531    7.68898
      H1    -0.24503    3.06970    7.23098
       H    -2.93962   -4.82061    5.59733
       O    -1.94492   -4.63087    5.79645
      H1    -1.81284   -5.03660    6.69586
       H     1.01156    2.36772    8.30880
       O     1.98522    2.28051    8.38690
      H1     2.14447    1.35818    8.73615
       H     2.21606   -3.15569    0.26178
       O     2.97161   -3.60956    0.61111
      H1     3.71603   -3.02709    0.50416
       H    -2.16663   -2.26519    0.89499
       O    -1.57760   -2.24420    0.09405
      H1    -2.13087   -2.78845   -0.45417
       H    -2.65603    1.44685    0.31062
       O    -2.39259    2.07600    0.99619
      H1    -3.16142    2.13355    1.60090
       H     0.72663    8.80251    3.36905
       O     0.49835    8.52076    4.26132
      H1     1.17692    7.96652    4.63674
       H    -5.75473    3.91004   -0.24740
       O    -5.13957    3.25919   -0.60673
      H1    -4.27729    3.70533   -0.50099
       H    -0.93385    1.47567    6.29505
       O    -1.07959    0.73169    5.72097
      H1    -0.33924    0.78608    5.11026
       H    -4.84699    5.37317    4.65643
       O    -4.11593    4.97507    5.13529
      H1    -4.00490    4.10703    4.75131
       H    -0.70584    2.19936    2.05777
       O     0.13016    2.29444    2.52451
      H1     0.20756    1.40750    2.90730
       H    -3.14460   -2.07036    2.87987
       O    -3.39506   -2.44250    1.99768
      H1    -4.03972   -1.83599    1.65794
       H     3.43515    2.87487    5.89894
       O     3.39735    2.92110    4.92839
      H1     4.08245    3.54726    4.72700
       H     4.60335   -0.41676    0.90202
       O     4.13632   -0.48022    0.03571
      H1     3.22023   -0.45352    0.39781
       H    -2.90235   -4.27414    2.38536
       O    -2.58600   -5.19250    2.30164
      H1    -3.27153   -5.68323    2.69615
       H     0.87580   -0.65624    1.91921
       O     1.21244   -1.21925    1.21114
      H1     0.48307   -1.44938    0.64602
       H    -3.25474   -0.98928   -1.62953
       O    -3.44018   -0.16511   -1.13188
      H1    -3.90872    0.31394   -1.81207

