180
frame 0 | Written by MDAnalysis XYZWriter (release 2.4.3)
       H     4.38885   -1.11861    6.49226
       O     4.45523   -1.67097    5.67524
      H1     3.61063   -2.18716    5.58331
       H     0.60250   -0.85471    4.91952
       O     0.14878   -0.57603    4.06845
      H1    -0.76172   -0.70857    4.35474
       H     0.50935   -3.87328    5.67724
       O     1.25591   -4.52676    5.65572
      H1     1.54481   -4.65269    6.61258
       H     4.19261  -10.88355   10.18974
       O     3.40241  -10.29838   10.27871
      H1     2.64175  -10.93560   10.19627
       H    -1.25017   -8.49801   15.63980
       O    -1.42498   -7.66514   16.10289
      H1    -1.01981   -7.01430   15.59561
       H    -4.37704   -3.91033   10.58577
       O    -5.05839   -3.96878    9.91417
      H1    -4.74770   -4.73498    9.44948
       H    -0.77318    0.39662    6.60244
       O    -0.29778    0.48124    7.46262
      H1    -0.23074    1.42633    7.62499
       H    -0.89529   -7.78644    9.63518
       O    -0.46734   -8.54396   10.02819
      H1     0.10046   -8.94619    9.30448
       H    -2.70481  -11.63134    6.08900
       O    -2.72839  -10.78770    5.59883
      H1    -1.79886  -10.62217    5.70648
       H    -8.20057   -8.36665    9.48721
       O    -7.30767   -8.57434    9.68398
      H1    -6.78096   -7.80590    9.61342
       H    -3.34736   -8.19166    4.99368
       O    -3.63228   -7.69504    4.18937
      H1    -3.05152   -6.95098    4.16498
       H    -2.40554   -4.85648   12.30127
       O    -2.61312   -4.43958   11.45788
      H1    -1.98087   -4.80049   10.78420
       H    -6.23819   -4.61145   12.78770
       O    -6.35663   -3.69584   12.46230
      H1    -6.11993   -3.76789   11.48840
       H    -1.31087   -1.25416    8.11069
       O    -1.23799   -2.16178    8.44186
      H1    -1.32298   -1.96762    9.41638
       H     2.25678    0.47711   10.02126
       O     3.12406    0.14094   10.11129
      H1     3.05159   -0.78566    9.88814
       H    -0.66938   -6.10063    4.24467
       O    -1.26833   -5.45230    4.60817
      H1    -0.60440   -5.13036    5.34700
       H    -0.90735   -7.73032    7.13927
       O    -1.75068   -7.46613    7.49635
      H1    -1.97103   -6.56015    7.17829
       H     1.57580   -8.07594    6.86680
       O     0.82135   -7.58815    6.41063
      H1     1.08027   -7.64706    5.45279
       H     4.33916   -6.37130    9.20218
       O     3.69322   -6.29468    9.93028
      H1     4.10162   -5.68050   10.58029
       H    -5.22447   -9.72238    7.38438
       O    -6.05486  -10.24765    7.41041
      H1    -6.45219  -10.07573    8.30016
       H    -3.27157  -11.55430   11.60508
       O    -3.31668  -11.82737   10.69385
      H1    -3.15288  -11.04536   10.21681
       H    -3.12410  -10.48842    7.62172
       O    -3.06642   -9.78299    8.26673
      H1    -2.60715   -9.06850    7.69773
       H     0.10440  -10.57610    7.59305
       O    -0.37207  -10.13043    6.88584
      H1     0.31070   -9.54003    6.60022
       H     5.47354   -7.50380   10.66530
       O     5.54832   -7.72206   11.58942
      H1     4.70980   -8.17834   11.80213
       H     0.01060   -2.85350   13.17782
       O    -0.79271   -3.17556   13.63579
      H1    -1.43132   -2.44057   13.47245
       H    -3.22009   -0.46284    4.35101
       O    -2.58081   -1.07901    4.66308
      H1    -2.79199   -1.92815    4.35886
       H    -6.16981   -5.36213   14.74057
       O    -5.99047   -5.77934   13.85934
      H1    -6.49158   -6.57080   13.97790
       H     0.65536   -6.39545   12.54727
       O     1.10931   -6.50404   11.69782
      H1     0.33191   -6.67850   11.11665
       H     1.96482   -9.20229   15.21216
       O     1.81890   -8.39494   14.68643
      H1     2.41440   -8.51414   13.90162
       H    -5.30478   -2.75511   13.90344
       O    -4.87116   -1.88652   14.12949
      H1    -4.96280   -1.90757   15.09909
       H     3.04850   -7.79851   11.83668
       O     3.12401   -8.62198   12.39750
      H1     3.18741   -9.35039   11.74075
       H     2.41878   -5.51823    8.80998
       O     1.61921   -5.21263    8.33459
      H1     1.42554   -5.99762    7.83571
       H     1.66859   -0.25039   12.67831
       O     1.40488   -0.84354   13.39226
      H1     1.00155   -0.18860   13.93264
       H    -7.73147   -2.54202    9.19779
       O    -7.52361   -3.42905    8.93991
      H1    -6.65602   -3.63035    9.31558
       H     1.25199   -9.16791   12.57011
       O     0.39666   -9.58327   12.32088
      H1     0.05715   -9.14071   11.46194
       H     0.87089   -2.20671    8.85272
       O     1.52144   -2.18305    9.56313
      H1     2.32115   -2.49531    9.06443
       H     0.27467   -5.39654    9.70816
       O    -0.64407   -5.46628    9.83905
      H1    -0.95593   -5.24780    8.94492
       H    -0.74510   -2.89534   15.31753
       O    -0.93790   -2.88865   16.26037
      H1    -0.87846   -1.98631   16.56752
       H     0.81902   -6.80069   14.45214
       O     0.07885   -6.22396   14.20518
      H1     0.43586   -5.37594   14.56203
       H     6.47578   -5.73395    8.27745
       O     5.88843   -6.51503    8.09395
      H1     6.48631   -7.14130    8.55841
       H     0.55284    1.44970   11.26115
       O     0.59433    0.88813   10.45270
      H1     0.44405    1.62649    9.75734
       H     1.12170   -0.87618    6.87168
       O     1.72467   -1.10332    6.16595
      H1     2.16964   -0.23643    6.02463
       H    -6.98129   -4.39754    7.27344
       O    -6.72517   -4.88839    6.50375
      H1    -7.17394   -5.75609    6.56356
       H     3.63122   -6.13827   15.56966
       O     3.30323   -5.85382   14.71963
      H1     4.18083   -5.82670   14.26517
       H    -3.75678   -9.30826   12.15032
       O    -4.34442   -9.90846   12.58929
      H1    -4.28010   -9.65388   13.53757
       H    -4.30811   -6.39387    7.96658
       O    -4.09437   -5.63545    7.39292
      H1    -4.98717   -5.38516    7.01637
       H    -1.55434  -10.68401   14.82934
       O    -0.86242  -10.01146   15.04044
      H1    -0.60799   -9.53092   14.27844
       H    -0.51212   -8.45096    3.31660
       O     0.07764   -7.72173    3.47088
      H1     0.17955   -7.41782    2.59304
       H    -2.58733   -0.09703   10.48021
       O    -1.98797   -0.82466   10.78335
      H1    -1.14583   -0.34569   10.60350
       H     0.00895  -12.07037    8.95113
       O     0.74804  -11.48502    8.79703
      H1     1.26126  -11.95821    8.16067
       H    -2.32109   -4.17034    6.64293
       O    -1.43946   -4.36073    7.05291
      H1    -1.36076   -3.58341    7.64390
       H    -2.15588   -0.93095   12.58950
       O    -2.38484   -0.95591   13.55633
      H1    -3.24037   -1.46013   13.56476
       H     1.91287   -5.32340    3.80278
       O     2.68993   -5.68453    3.31300
      H1     2.29514   -6.05916    2.48182
       H    -3.98506   -8.55658    9.24009
       O    -4.34686   -7.63128    9.34213
      H1    -3.81098   -7.30634   10.09404
       H    -2.04330   -6.35352   14.48387
       O    -2.75510   -5.79902   14.06349
      H1    -3.27839   -5.43261   14.78450
       H     4.76094   -2.71791    8.58834
       O     3.98121   -3.24824    8.73322
      H1     4.29123   -3.82137    9.45460
       H     1.25206   -4.72397   11.43157
       O     1.29475   -3.81367   11.73684
      H1     1.44286   -3.29846   10.93543
       H     3.08510   -3.82560   11.93900
       O     3.97658   -3.89118   11.60533
      H1     4.38424   -3.26583   12.21048
       H    -1.70562   -7.91572   11.99173
       O    -2.64722   -7.84416   11.96450
      H1    -2.84263   -7.09566   12.59972
       H     2.63881   -9.40662    8.78706
       O     2.31272   -8.47756    8.48645
      H1     2.56447   -7.92711    9.24775

