180
frame 1 | Written by MDAnalysis XYZWriter (release 2.4.3)
       H    13.14842  -16.69485  -18.22383
       O    13.80154  -16.47845  -18.93366
      H1    14.44781  -17.23937  -18.72934
       H    17.27209  -18.74461  -19.15401
       O    17.59196  -19.34814  -19.80761
      H1    18.44754  -18.94656  -19.97574
       H    17.67102   -7.00434  -17.11529
       O    16.76778   -7.26227  -17.13117
      H1    16.97975   -7.86562  -17.88705
       H    14.49552   -9.35845  -12.85161
       O    14.34611   -8.86171  -13.67556
      H1    14.70350   -8.03983  -13.32683
       H    10.51554   -7.54193  -17.94655
       O    11.28239   -8.10157  -17.73883
      H1    11.68176   -8.10777  -18.61623
       H    17.97680  -17.05932  -11.65762
       O    17.59745  -17.34963  -10.77994
      H1    16.61213  -17.28137  -10.95488
       H    15.47286  -19.17075  -17.11495
       O    15.95265  -18.39799  -17.35215
      H1    15.90616  -17.79016  -16.59176
       H    12.62611  -10.75175   -9.51445
       O    13.55265  -10.91257   -9.25328
      H1    13.77763  -10.12919   -8.72448
       H    19.29723   -5.54038  -12.77264
       O    18.51071   -5.58476  -12.24982
      H1    18.15419   -4.71154  -12.18165
       H    16.88947  -16.32425  -15.36788
       O    16.14282  -16.85650  -15.19638
      H1    16.25295  -17.71840  -14.68460
       H    11.73197  -13.58518  -15.87605
       O    12.51147  -13.95024  -16.22739
      H1    13.13038  -13.67177  -15.49753
       H     8.14985  -17.12164  -13.28663
       O     7.57933  -17.07336  -14.02343
      H1     6.79745  -16.71951  -13.60547
       H    10.45397  -10.18716   -9.71029
       O    11.10355  -10.27953  -10.42595
      H1    10.93474  -11.15742  -10.84866
       H    17.40597  -14.00624  -10.45876
       O    18.22317  -13.80381   -9.95428
      H1    18.53211  -14.71054   -9.86434
       H    18.44395  -10.64746  -12.64877
       O    18.44208  -11.57601  -12.50625
      H1    18.59856  -11.77969  -11.58542
       H    12.84320   -8.24737  -16.70326
       O    13.61702   -8.80835  -16.44394
      H1    13.77240   -8.60571  -15.48546
       H    18.18809  -11.81307  -17.07282
       O    18.38569  -12.60534  -17.62529
      H1    17.61874  -13.15410  -17.30095
       H    11.68843  -16.10833  -11.85196
       O    12.05578  -15.39351  -12.41928
      H1    12.97867  -15.38136  -12.12613
       H    17.45858  -12.63280   -7.27991
       O    17.78419  -11.89863   -7.81892
      H1    17.93920  -12.35304   -8.62356
       H    12.89883  -16.87759  -13.70998
       O    12.99547  -17.56112  -14.41374
      H1    13.09832  -16.95650  -15.15633
       H     9.30617   -8.26104  -14.72993
       O     8.61801   -7.85563  -15.25867
      H1     9.00033   -6.96443  -15.36085
       H    11.17891   -5.43236  -15.73388
       O    10.41036   -5.51584  -15.10609
      H1    10.79706   -5.63210  -14.24273
       H     8.50690   -9.01692  -16.76604
       O     8.60877   -9.44259  -17.65498
      H1     7.81462   -9.91313  -17.84906
       H    15.60782  -10.07755  -18.44822
       O    16.15912   -9.62233  -19.10547
      H1    17.06589   -9.67344  -18.73808
       H    18.58667  -16.45579   -9.56454
       O    19.16886  -15.93318   -8.96032
      H1    18.90343  -16.20759   -8.02306
       H    15.14037  -14.11064  -13.93337
       O    14.60854  -14.83472  -13.63211
      H1    15.12627  -15.57188  -14.12382
       H    10.90729  -17.53258   -9.79646
       O    10.28942  -16.77327   -9.99537
      H1    10.01331  -16.59184   -9.06734
       H    12.73750   -3.52313  -16.82386
       O    12.65859   -4.43867  -16.46124
      H1    13.14117   -4.92379  -17.17294
       H    15.75823   -6.27878  -13.82569
       O    16.18210   -6.88347  -13.16200
      H1    17.06332   -6.49018  -13.21683
       H    15.58284  -15.31695  -10.64477
       O    15.73423  -14.42135  -11.05860
      H1    15.34530  -14.51815  -11.92070
       H    10.60023  -11.87518  -15.68022
       O    10.19176  -12.28012  -14.90889
      H1     9.42468  -11.71211  -14.74975
       H    14.32511   -5.10639  -15.53345
       O    15.27534   -5.27644  -15.36570
      H1    15.49957   -5.95392  -16.01620
       H    15.84356  -11.01490  -15.20480
       O    16.71473  -11.18747  -14.72774
      H1    16.51414  -11.09110  -13.79713
       H    11.52466  -10.07945  -17.15091
       O    11.02141  -10.89623  -17.11264
      H1    10.10828  -10.59298  -17.11095
       H     9.50328   -6.16540  -12.33198
       O    10.44302   -5.92195  -12.12495
      H1    10.88278   -6.73927  -11.89220
       H    16.82685  -10.52598   -8.92023
       O    16.90243   -9.59803   -9.27418
      H1    17.85168   -9.37196   -9.31514
       H     8.95868  -14.29663  -15.38573
       O     8.17537  -14.73738  -15.75829
      H1     8.11341  -15.59469  -15.32184
       H    17.78484   -9.50728  -14.37055
       O    18.27372   -9.15541  -13.61714
      H1    17.55385   -8.55001  -13.34357
       H    19.33084  -16.52163  -17.05796
       O    18.43441  -16.57385  -17.37088
      H1    18.22278  -17.43640  -17.25133
       H    11.88889  -13.53927   -8.57762
       O    10.91860  -13.47710   -8.67923
      H1    10.62466  -14.38832   -8.71624
       H    19.23309   -9.51816  -17.46879
       O    18.67060   -9.33786  -18.25796
      H1    18.92962   -8.44652  -18.62908
       H     6.70887  -11.30211  -13.72508
       O     7.14979  -12.15697  -14.02377
      H1     7.02571  -12.67117  -13.17135
       H     8.22896  -15.70996  -18.96758
       O     8.42046  -14.81923  -18.61358
      H1     8.46057  -14.96533  -17.65562
       H    10.77198  -17.13552  -17.83017
       O    10.06565  -17.65305  -18.24070
      H1     9.58468  -16.98238  -18.75799
       H    15.81532  -14.43189   -6.37632
       O    16.72409  -14.32103   -6.73057
      H1    16.49301  -14.68927   -7.62476
       H    12.31411  -15.60081  -16.31161
       O    12.29630  -16.53241  -16.64769
      H1    11.84942  -17.03940  -15.91952
       H    11.47467   -9.65272  -14.46595
       O    10.88296   -8.98341  -14.16299
      H1    11.37126   -8.52964  -13.46917
       H    13.86650  -12.70606   -8.20749
       O    13.52559  -13.58801   -8.26835
      H1    13.28216  -13.91073   -7.37320
       H    18.28836  -14.31149  -13.76319
       O    18.28112  -13.67172  -14.43706
      H1    18.09299  -12.92051  -13.88616
       H    15.97386   -9.88906  -10.95969
       O    15.27334  -10.20214  -11.52017
      H1    14.76855  -10.51687  -10.78711
       H    14.01420  -11.78778  -17.06141
       O    14.98380  -11.75512  -17.28683
      H1    15.01902  -12.55032  -17.87082
       H    15.65153   -7.04947  -11.29340
       O    14.95854   -7.28483  -10.66440
      H1    15.14059   -8.18945  -10.42341
       H    13.17745   -7.48700  -11.22889
       O    12.29732   -7.62936  -11.54704
      H1    12.20543   -8.56753  -11.37923
       H    13.49613   -6.61362  -18.66224
       O    13.92334   -6.22971  -17.87298
      H1    14.32650   -7.02606  -17.47995
       H    15.34334   -5.64173  -18.75888
       O    15.87590   -5.20202  -19.37657
      H1    15.79297   -5.77047  -20.16670
       H    10.98085  -13.12624  -10.62965
       O    10.58689  -12.96616  -11.54710
      H1    10.96474  -13.65379  -12.10313
       H    15.09322  -15.13748  -18.95680
       O    15.23103  -14.16404  -19.11676
      H1    15.94645  -14.04544  -19.76402
       H    16.83011  -13.47220  -15.50920
       O    15.95442  -13.80717  -15.83785
      H1    15.62230  -12.93670  -16.18694
       H    14.24277  -18.39490  -11.26939
       O    14.89232  -17.83469  -10.86332
      H1    15.07159  -18.32573  -10.03528
       H     9.03866  -12.20580  -11.01534
       O     8.14428  -11.83494  -10.84700
      H1     8.18448  -10.93232  -11.25367

