180
frame 4 | Written by MDAnalysis XYZWriter (release 2.4.3)
       H     8.65078    9.60754    1.71796
       O     8.79943    9.27817    2.65311
      H1     8.80914   10.11621    3.12074
       H     0.45361    5.94375    7.02754
       O     0.70874    5.01637    6.77986
      H1     1.35243    5.08034    6.05932
       H     5.13655    8.01107   -3.59466
       O     4.89433    7.57887   -4.48850
      H1     4.48053    8.33068   -4.94487
       H     9.01561    8.37415    7.19503
       O     9.88064    7.87280    7.18854
      H1     9.85340    7.40777    8.04573
       H     6.50517    2.63979    3.60136
       O     6.73752    1.88579    3.03294
      H1     7.15144    1.30042    3.68902
       H     7.92654   13.09347    0.84461
       O     8.08198   12.10938    0.94210
      H1     7.49563   11.87269    1.63840
       H     4.75613    2.34223    7.40857
       O     4.72142    3.27442    7.72087
      H1     3.84809    3.32935    8.12399
       H     0.49670   10.62980    1.41909
       O     0.73411   10.08088    2.18617
      H1     0.21672    9.21571    2.09269
       H     4.27223   11.56132   -1.75037
       O     3.77329   12.14910   -2.34009
      H1     3.12975   11.48581   -2.64412
       H     5.90798    5.59531    0.73826
       O     6.19987    4.88344    1.34641
      H1     5.35031    4.63219    1.75894
       H     5.12639   11.42516    0.15360
       O     5.53400   11.13085   -0.68515
      H1     5.92012   11.90257   -1.02660
       H     4.21232   10.99210    1.89359
       O     4.74267   11.83090    1.82503
      H1     3.97273   12.45297    1.90766
       H     6.14607    1.74793   -0.32008
       O     6.03256    2.29964   -1.09033
      H1     6.06895    1.62300   -1.77742
       H     4.14862    6.11854   -2.89503
       O     4.14735    5.92356   -1.94503
      H1     5.05515    5.96469   -1.62387
       H    13.51414    7.60430    2.35643
       O    13.13128    8.46054    2.28328
      H1    13.01511    8.62440    1.38138
       H     9.77963    5.02724    0.03441
       O    10.53771    5.66636    0.18852
      H1    11.18087    4.90854    0.22923
       H    10.16552    2.76726   -1.73815
       O    10.80041    2.68253   -2.49439
      H1    10.35094    3.23611   -3.15764
       H    11.00002    3.94464    5.55160
       O    11.75073    4.17599    4.95945
      H1    11.98246    3.36300    4.55221
       H     9.90385    5.44823    6.58946
       O     9.69681    4.48701    6.88697
      H1    10.32549    4.24139    7.56793
       H     9.97985    1.37152   -0.41504
       O     9.09594    1.53349   -0.78818
      H1     8.91129    2.45570   -0.39851
       H     6.91854    7.29599   -0.28939
       O     6.64481    6.55284   -0.83075
      H1     7.30646    5.89715   -0.64943
       H     9.48700   11.83998    4.38220
       O     9.63729   11.02082    4.87054
      H1    10.47036   10.74441    4.45822
       H     7.42789    7.65201    3.53717
       O     7.01878    6.78201    3.37021
      H1     6.93524    6.78262    2.46132
       H    14.46597    4.29045    1.87317
       O    13.76930    5.00731    1.73580
      H1    13.71332    5.19131    2.67186
       H     2.99596    3.27325    3.21522
       O     3.85205    3.70698    3.02319
      H1     4.30820    3.54889    3.83393
       H     7.94698    3.93988    0.57079
       O     8.29525    3.98676   -0.39253
      H1     7.47589    3.77222   -0.88705
       H     1.01662    2.48314    3.75378
       O     0.96609    3.04857    2.94011
      H1     1.40759    2.56334    2.22405
       H     3.09488    7.44163    0.75937
       O     2.50775    6.73779    1.11057
      H1     3.10393    6.29292    1.69649
       H    10.50217    6.72810    1.69391
       O    10.21590    6.96999    2.59364
      H1     9.80546    7.86194    2.47066
       H     1.02150    4.04979   -0.72754
       O     0.68650    4.90803   -0.45600
      H1     1.45485    5.12974    0.12577
       H     2.76614    5.48555    3.81415
       O     2.34580    5.80144    4.60966
      H1     2.47579    6.74240    4.51489
       H     2.47867    2.39869   -0.07006
       O     2.03563    2.00432    0.65871
      H1     1.30003    1.47390    0.31326
       H     9.76849    9.18181   -2.16524
       O    10.18189    9.46258   -1.36849
      H1    10.68799   10.29811   -1.52130
       H    12.02463   11.67042    2.57078
       O    12.39676   11.23083    3.36940
      H1    12.48669   10.31327    3.10383
       H     7.72097   12.68800    6.52909
       O     7.26922   13.33343    5.92770
      H1     6.77283   12.68178    5.35083
       H     4.19039   10.59724    5.99727
       O     5.05202   10.13024    6.09889
      H1     4.93480    9.16062    6.18089
       H    10.82114    3.59245    1.47503
       O    11.60046    3.42511    0.91869
      H1    12.31996    3.68874    1.48527
       H     3.46135    9.94589    3.16598
       O     3.59034    9.46537    2.31427
      H1     2.67077    9.53326    2.08192
       H    10.04066   12.45627    1.18682
       O    10.96533   12.28755    1.19937
      H1    11.29810   13.25147    1.36504
       H     9.11770    9.32171   -3.83331
       O     8.66357    8.69284   -3.19482
      H1     8.94523    7.86191   -3.59680
       H     7.02816    8.90013   -2.80449
       O     6.12763    9.12471   -2.48165
      H1     6.30666    9.76222   -1.75988
       H     5.12341    7.10395    7.67429
       O     4.39962    7.16308    8.31299
      H1     4.59345    6.41945    8.94479
       H    10.93132    8.39546    5.69473
       O    11.54452    8.63385    4.98768
      H1    11.49078    7.91039    4.36227
       H     8.36332    9.44347   -0.52909
       O     7.63691    9.30061    0.06984
      H1     7.26133   10.20304    0.04960
       H     4.33883    8.95436   -1.06629
       O     3.58886    8.30886   -1.02751
      H1     4.01960    7.47800   -1.35133
       H    11.68768    8.72522   -0.93682
       O    12.59633    8.65381   -0.63850
      H1    12.83358    7.72077   -0.66383
       H     8.78945    3.38279    3.29186
       O     9.28726    2.92749    2.56444
      H1     8.64586    2.29589    2.33081
       H     3.67874    3.92213   -1.69654
       O     3.49054    2.97340   -1.35735
      H1     4.44517    2.76227   -1.12614
       H     1.19490    7.67325   -3.03024
       O     1.38868    8.48905   -2.47954
      H1     2.16602    8.17997   -1.95130
       H     7.06496    9.21987    8.71775
       O     7.27237    9.17947    9.63945
      H1     7.55988    8.25018    9.77306
       H     3.26741    7.90969    6.76515
       O     2.39970    8.21511    6.36688
      H1     2.68930    8.88666    5.75257
       H     6.03347    6.83196    4.80616
       O     5.62775    6.86305    5.70414
      H1     5.38356    5.95050    5.56031
       H     6.48234    0.66392    1.36855
       O     6.59900    0.21103    0.52924
      H1     7.54019    0.15535    0.48417
       H     5.57328    3.80846    6.15179
       O     5.58149    4.03580    5.21783
      H1     6.50193    4.31918    5.06853
       H     7.97477    5.27115    8.22753
       O     7.69972    5.92387    8.85703
      H1     7.01923    5.56025    9.42994
       H     1.50683   10.61288    3.77920
       O     2.23134   10.59121    4.43258
      H1     2.42019   11.54457    4.57807
       H     8.84185    4.55453    5.26504
       O     8.25511    4.33073    4.51528
      H1     8.21948    5.15130    4.10284
       H     8.46974   10.20906    6.03448
       O     8.00594    9.84623    6.81832
      H1     8.31787   10.54590    7.41254
       H     8.70956    1.49854    7.51126
       O     8.09591    1.79846    6.84652
      H1     8.72434    2.24939    6.24650
       H     5.99060   11.50664    3.16990
       O     6.53635   11.44167    3.98225
      H1     6.01830   10.84492    4.59180

