180
frame 12 | Written by MDAnalysis XYZWriter (release 2.4.3)
       H   -18.67999   -9.58120   17.00692
       O   -18.37190   -9.77325   16.10930
      H1   -17.70157  -10.54343   16.26437
       H   -18.03345  -16.22053    7.73076
       O   -18.47315  -15.65574    7.04585
      H1   -17.70584  -15.12928    6.75667
       H    -8.68270  -17.28583   12.96693
       O    -8.31182  -17.06759   13.83034
      H1    -7.38378  -17.36980   13.76205
       H   -15.77566  -11.58036    9.81013
       O   -15.13863  -11.22540   10.41972
      H1   -15.60990  -11.16894   11.26329
       H    -6.10320  -11.71118   13.41859
       O    -6.17360  -11.10310   14.18789
      H1    -6.47603  -11.76623   14.84568
       H    -8.19269  -15.64761   16.60379
       O    -7.32228  -15.81714   17.03001
      H1    -7.38585  -15.06079   17.70606
       H   -12.51894  -11.03660   12.91800
       O   -12.89952  -10.18982   12.65429
      H1   -13.21752   -9.94764   13.55596
       H   -10.22371  -13.23531   19.33427
       O   -10.63182  -12.51721   18.79926
      H1   -10.70650  -11.79727   19.41579
       H    -7.63565   -9.76914   13.01009
       O    -8.39640   -9.97357   12.42184
      H1    -9.11062   -9.99562   13.11485
       H   -13.07696  -17.90817   18.89038
       O   -13.39659  -17.03882   19.13589
      H1   -12.57353  -16.46273   19.27958
       H    -9.64066  -18.79421   11.38827
       O    -9.43109  -17.86462   11.68483
      H1   -10.10669  -17.30086   11.27294
       H   -17.84417  -15.36328   16.52777
       O   -17.23401  -14.88283   15.92589
      H1   -16.40703  -14.74709   16.45068
       H   -15.50871  -18.74004   15.72602
       O   -15.51487  -18.43706   16.63708
      H1   -14.70435  -18.88884   17.04502
       H    -8.32110  -18.88311   14.70357
       O    -8.38067  -19.67446   15.27334
      H1    -8.38045  -19.27209   16.15751
       H   -16.63488  -13.76348    8.30786
       O   -16.92875  -12.86240    8.64842
      H1   -16.87063  -12.35716    7.85212
       H   -14.41483  -13.02389   10.39950
       O   -13.93749  -13.84842   10.29741
      H1   -14.58800  -14.42918   10.74786
       H    -6.01461  -13.26233   16.75017
       O    -6.12454  -12.53831   17.41125
      H1    -7.01995  -12.26458   17.17883
       H   -14.63560  -18.67048   13.49018
       O   -15.57267  -18.29637   13.54346
      H1   -15.40433  -17.32086   13.34863
       H   -15.12809  -15.13289    8.73139
       O   -15.87523  -15.38742    8.14081
      H1   -15.51735  -16.17138    7.68735
       H   -17.83712  -11.88576   10.50229
       O   -18.00449  -10.93061   10.75389
      H1   -18.39665  -11.04163   11.71837
       H   -18.47287  -14.11632   14.80895
       O   -19.36650  -13.75818   14.55297
      H1   -19.90444  -14.57500   14.57655
       H   -15.45560  -10.66305   13.30559
       O   -16.00126  -11.51615   13.10853
      H1   -16.89088  -11.17077   13.10471
       H   -14.64997   -9.08463   18.54107
       O   -14.70750  -10.01976   18.49937
      H1   -15.63815  -10.14037   18.44885
       H   -15.56921  -18.06614    8.05390
       O   -14.65757  -18.01219    7.82768
      H1   -14.16502  -17.86728    8.65915
       H   -16.11213   -8.54517    9.88507
       O   -15.11239   -8.53708   10.02706
      H1   -14.93778   -9.47337    9.74264
       H   -10.80526  -15.99250    9.64614
       O   -11.26373  -16.04018   10.49708
      H1   -11.14044  -15.10244   10.74753
       H   -18.58320   -7.83328   14.70286
       O   -18.21551   -7.62127   13.85429
      H1   -17.52929   -8.30019   13.71172
       H   -13.29174  -11.19635   16.00318
       O   -13.87830  -10.47639   15.86573
      H1   -14.15463  -10.34712   16.78456
       H   -12.72543   -6.41079   19.01606
       O   -12.29809   -5.95780   18.25552
      H1   -12.43630   -6.59600   17.51632
       H   -17.89932  -18.78358    8.00707
       O   -17.55423  -18.19065    8.68855
      H1   -18.36072  -17.98219    9.10246
       H    -6.41207  -14.57964   12.65617
       O    -7.17738  -14.51362   13.21187
      H1    -7.48391  -15.42090   13.31022
       H   -10.91102   -7.58298   13.35868
       O   -10.87321   -7.00362   14.17528
      H1   -10.32253   -7.52624   14.75041
       H   -15.48249  -16.51997   11.37310
       O   -15.59804  -15.68220   11.86305
      H1   -16.56410  -15.42697   11.79582
       H   -19.87175  -13.45980    9.64737
       O   -19.62728  -13.10797    8.83850
      H1   -18.63230  -13.27258    8.85290
       H   -12.57437  -13.28638   13.46961
       O   -11.81820  -12.63066   13.25474
      H1   -11.24968  -13.06250   12.61707
       H   -14.71265  -14.30540   13.04917
       O   -14.45139  -13.59339   13.63956
      H1   -15.19206  -12.95602   13.42507
       H   -11.20098  -13.33601   17.15000
       O   -11.68094  -13.58499   16.39762
      H1   -11.11904  -13.83094   15.69584
       H   -15.42443   -5.59689   13.94184
       O   -14.59893   -6.11533   13.95902
      H1   -14.57263   -6.37564   14.94840
       H   -18.28959  -16.16442   14.76458
       O   -18.76350  -16.31839   13.93242
      H1   -19.48738  -16.97351   14.25088
       H    -8.68313  -10.52193   17.95272
       O    -8.77038  -11.23434   17.31525
      H1    -9.30251  -11.82723   17.86550
       H    -6.70106  -14.82464   19.95585
       O    -7.39605  -14.22019   19.53673
      H1    -6.93624  -13.48784   19.16131
       H   -12.37621   -7.64527   15.24871
       O   -12.83449   -7.73080   16.16284
      H1   -12.97152   -8.70061   16.14432
       H   -11.41078   -7.92709   11.21718
       O   -10.95650   -8.43566   11.91842
      H1   -11.60765   -9.09148   12.06583
       H    -5.48619  -18.67609   17.18168
       O    -6.21748  -18.97799   17.76450
      H1    -6.68191  -18.14746   17.88428
       H   -14.97195  -16.44755   18.77790
       O   -15.91417  -16.23680   18.46265
      H1   -15.78962  -16.62066   17.55543
       H   -16.17231  -11.92483   16.11189
       O   -16.83551  -11.85527   16.85211
      H1   -16.79468  -12.74150   17.19830
       H    -8.63062  -14.30873   14.71655
       O    -9.43121  -14.70929   15.04520
      H1    -9.59963  -15.53423   14.50994
       H   -14.55916  -14.00406   15.48959
       O   -14.47910  -14.02977   16.46572
      H1   -13.51218  -13.94365   16.71067
       H   -10.07261  -10.87230   15.79679
       O   -10.31722  -10.64944   14.88893
      H1   -10.62280  -11.44126   14.43697
       H   -17.19344   -8.44732   18.08581
       O   -16.53850   -7.88575   18.48987
      H1   -16.88619   -7.87335   19.38112
       H   -19.26730   -8.77867   19.44496
       O   -19.09743   -8.85775   18.49399
      H1   -19.02817   -7.88627   18.16578
       H   -18.60773  -15.74506   12.23941
       O   -18.38621  -15.38013   11.35990
      H1   -18.60519  -16.01908   10.70696
       H   -11.86053  -13.31922   10.20610
       O   -10.91228  -13.18843   10.33051
      H1   -10.86661  -12.25449   10.60467
       H   -18.98748  -12.06604   13.88852
       O   -18.92397  -11.18368   13.53649
      H1   -19.04049  -10.57890   14.31127
       H   -13.56409  -17.52117   11.52175
       O   -13.70670  -17.45217   10.51270
      H1   -13.02095  -16.78334   10.34174
       H    -5.93858  -14.66429   14.81824
       O    -5.36393  -14.93705   15.58221
      H1    -6.14280  -15.23946   16.11303
       H   -16.55765   -5.68652   16.58703
       O   -15.67742   -6.02668   16.78954
      H1   -16.02575   -6.60666   17.51325
       H   -11.31035  -17.71620   13.09812
       O   -12.25659  -18.03462   12.96061
      H1   -12.03485  -18.75768   12.36728
       H   -17.68373  -17.92779   20.19547
       O   -18.02515  -17.50312   19.39084
      H1   -17.27761  -16.87481   19.16225
       H   -14.92715   -8.03528   13.28098
       O   -15.53568   -8.66647   12.80731
      H1   -15.20958   -8.79357   11.89646

