180
frame 9 | Written by MDAnalysis XYZWriter (release 2.4.3)
       H   -11.84036  -18.58655   -6.84439
       O   -11.74737  -19.09203   -7.72353
      H1   -11.55062  -19.92764   -7.29895
       H   -12.68684  -16.75809   -5.37759
       O   -12.02144  -17.42922   -5.39337
      H1   -11.32758  -16.79682   -5.19561
       H    -8.54905  -15.13397   -1.95696
       O    -7.71865  -15.54089   -2.00868
      H1    -7.20650  -14.79717   -2.41430
       H    -5.94200  -13.34956  -13.65764
       O    -6.62081  -13.35062  -12.96614
      H1    -6.61004  -14.30484  -12.77663
       H    -4.47389  -14.64609   -4.84730
       O    -4.92144  -15.47899   -5.18831
      H1    -4.20138  -16.06673   -4.91472
       H   -14.57469  -13.34286   -8.69833
       O   -15.42831  -13.43803   -8.18116
      H1   -15.61458  -14.35359   -8.20850
       H   -11.81014  -15.31010  -13.67747
       O   -11.52328  -15.44286  -14.54262
      H1   -12.13495  -16.09905  -14.84856
       H   -12.98319  -12.48701   -9.61278
       O   -13.34912  -13.30627  -10.04363
      H1   -12.74517  -14.00872   -9.83444
       H   -11.79658  -12.43189   -2.07362
       O   -11.85809  -12.95538   -2.89133
      H1   -12.74331  -13.35731   -2.80773
       H    -2.94218  -18.42183   -8.69254
       O    -3.89819  -18.35354   -8.84720
      H1    -4.09972  -19.30222   -8.69603
       H   -10.92830  -14.27717   -2.46828
       O   -10.27257  -15.00210   -2.17955
      H1   -10.84309  -15.32295   -1.44226
       H   -10.88391  -18.15908   -8.88952
       O   -10.27582  -17.60510   -9.44762
      H1   -10.60601  -16.72619   -9.20766
       H    -3.37965  -18.21376   -3.42054
       O    -3.04851  -17.33175   -3.57780
      H1    -3.54773  -16.81620   -2.89860
       H    -8.50917  -11.10038   -5.34432
       O    -9.21142  -10.96873   -6.03752
      H1    -9.82903  -11.64227   -5.86859
       H   -14.10310  -16.69654  -13.74994
       O   -13.41035  -17.40440  -13.70930
      H1   -13.16390  -17.38197  -12.75526
       H    -5.48518  -17.22667   -8.88263
       O    -6.24596  -16.74888   -9.25271
      H1    -6.01475  -15.82273   -9.26374
       H   -10.10602  -15.28197   -5.02218
       O   -10.63078  -14.88837   -5.70137
      H1   -10.91389  -14.03758   -5.38977
       H    -7.02771  -18.77426   -2.66531
       O    -6.43227  -18.12109   -3.02835
      H1    -6.90884  -17.25757   -2.92893
       H    -9.38166  -16.55742   -3.08071
       O    -9.29119  -17.17709   -3.84229
      H1    -8.58686  -16.78838   -4.40584
       H   -17.93961  -15.90526  -11.48549
       O   -18.88046  -16.08621  -11.28792
      H1   -19.01702  -16.81699  -11.88763
       H   -19.94344  -14.84819   -7.65969
       O   -19.13008  -14.63632   -7.14596
      H1   -19.02115  -15.47315   -6.68530
       H    -8.41317  -12.85358   -8.00313
       O    -8.56044  -13.80214   -8.10605
      H1    -8.25613  -14.03687   -7.23003
       H   -12.03400  -12.64197   -4.88699
       O   -11.62535  -12.43388   -5.71698
      H1   -12.43762  -12.18508   -6.22052
       H   -18.41866  -13.24674   -8.57610
       O   -17.99891  -12.99846   -9.41020
      H1   -17.13806  -12.73136   -9.06534
       H   -16.46328  -18.20555    0.40674
       O   -16.84783  -17.50601    0.90446
      H1   -16.32181  -16.77860    0.58746
       H    -6.30670  -16.50010  -11.80111
       O    -6.12501  -16.25106  -12.71071
      H1    -5.95070  -17.04307  -13.18522
       H   -17.94569  -14.69346   -3.64091
       O   -17.86109  -15.63685   -3.61536
      H1   -17.05702  -15.61764   -3.06202
       H    -8.95265  -15.65176  -11.41472
       O    -9.10411  -14.81813  -10.99190
      H1    -8.76508  -14.94838  -10.08618
       H   -12.80884  -14.40209  -11.88893
       O   -11.92537  -14.80325  -12.03488
      H1   -12.06485  -15.57742  -11.51960
       H    -8.66703  -17.79530   -8.42926
       O    -8.16726  -18.38324   -7.83479
      H1    -7.25376  -18.00826   -7.89050
       H    -6.77977  -13.14353   -5.82163
       O    -6.35343  -12.71195   -6.59026
      H1    -6.37416  -13.40350   -7.24750
       H   -18.66044  -17.23687   -9.70661
       O   -17.88297  -17.75644   -9.34436
      H1   -18.34252  -18.16359   -8.53333
       H   -16.43315  -16.92324  -14.07419
       O   -15.98216  -16.10615  -13.75142
      H1   -16.22127  -15.47767  -14.34959
       H   -14.18866  -14.03442   -4.94439
       O   -13.84173  -14.91182   -4.67934
      H1   -14.49105  -15.61714   -4.88603
       H   -15.72608  -14.40892   -1.98115
       O   -15.73081  -15.26406   -1.54061
      H1   -15.98223  -15.04814   -0.65211
       H   -16.59698  -19.21014  -12.22396
       O   -16.46711  -19.06235  -11.27852
      H1   -17.37480  -18.64163  -11.07620
       H   -14.87907  -19.12304   -0.02788
       O   -15.67240  -19.66596   -0.20810
      H1   -15.57968  -19.73116   -1.19318
       H    -9.48611  -12.93532  -11.19848
       O    -9.41056  -11.98252  -11.37432
      H1    -8.96409  -11.71189  -10.56204
       H   -12.83951  -17.52745   -0.78429
       O   -13.18841  -18.07923   -0.01560
      H1   -12.32726  -18.36305    0.37783
       H   -16.27828  -14.27877  -11.22392
       O   -16.39749  -15.13559  -10.72077
      H1   -16.88139  -14.74374   -9.95967
       H   -12.82402  -15.18816    0.26037
       O   -11.99486  -15.27617   -0.14523
      H1   -11.49049  -15.58267    0.63749
       H   -10.41311  -19.83410    0.64939
       O   -10.92635  -19.08207    1.08928
      H1   -10.34612  -18.33755    1.16743
       H    -2.66858  -19.90871   -5.22312
       O    -3.27103  -19.77703   -6.00164
      H1    -3.91377  -19.18362   -5.76137
       H   -13.08773  -17.54481  -10.81545
       O   -12.26478  -17.81244  -11.26818
      H1   -11.64617  -17.85174  -10.52159
       H   -15.49961  -16.90847   -6.46862
       O   -15.31261  -16.87866   -5.47302
      H1   -15.26468  -17.79596   -5.10610
       H   -14.82400  -17.80908   -2.63457
       O   -15.31593  -18.65568   -2.58126
      H1   -16.22398  -18.43837   -2.80288
       H    -8.98706  -17.81372  -12.11389
       O    -8.41954  -18.19246  -11.41564
      H1    -8.90962  -17.91368  -10.60604
       H   -14.10502  -11.24943   -6.54783
       O   -13.49509  -10.52936   -6.74871
      H1   -13.26509  -10.21110   -5.81481
       H    -7.24651  -19.61110   -5.63854
       O    -6.31071  -19.58385   -5.42622
      H1    -6.21521  -19.10838   -4.57310
       H    -4.27366  -13.87528   -8.01907
       O    -5.07737  -14.17464   -8.54306
      H1    -5.37773  -13.33281   -8.95405
       H   -15.07040  -17.79971  -10.80140
       O   -14.56809  -17.06097  -10.40071
      H1   -15.16604  -16.32470  -10.65477
       H   -15.31620  -16.73763   -8.81691
       O   -15.79510  -16.34450   -8.08435
      H1   -16.71976  -16.48994   -8.26954
       H   -17.42255  -17.61107   -6.08445
       O   -18.16144  -16.99277   -5.90184
      H1   -17.85754  -16.54200   -5.07910
       H   -11.57877  -14.83051   -7.63946
       O   -11.37389  -14.99212   -8.60256
      H1   -10.47022  -14.61117   -8.68531
       H    -9.44758  -17.42489  -14.21229
       O   -10.06626  -17.49066  -13.54643
      H1   -10.67980  -16.82164  -13.84708
       H    -7.50968  -16.80679   -6.55381
       O    -7.51497  -16.15248   -5.86197
      H1    -6.59166  -15.98587   -5.66112
       H   -13.21844  -16.20665   -3.12220
       O   -13.08306  -17.15443   -2.82824
      H1   -12.53542  -17.44905   -3.55574
       H   -15.53092  -11.53641   -5.60727
       O   -14.95415  -12.32724   -5.77045
      H1   -15.46184  -12.68513   -6.50978
       H    -8.90799  -20.16498   -3.55928
       O    -8.83029  -19.62309   -2.72103
      H1    -8.95863  -18.77363   -3.14427
       H    -3.63077  -19.14099  -11.91653
       O    -2.98952  -18.45840  -11.55772
      H1    -3.47855  -18.25967  -10.69244

