180
frame 9 | Written by MDAnalysis XYZWriter (release 2.4.3)
       H    -9.45087   10.30864  -12.26271
       O   -10.07490   10.04433  -12.92596
      H1    -9.63310   10.49808  -13.68765
       H   -12.99026    8.28839  -10.96624
       O   -13.15075    7.87018  -10.11992
      H1   -12.31901    8.09166   -9.67906
       H   -12.69842    4.18139  -11.60000
       O   -13.00231    3.80417  -12.45307
      H1   -13.41174    4.52691  -12.96906
       H    -9.19791    6.19297  -10.86950
       O   -10.08236    6.47548  -10.63094
      H1   -10.51594    6.71849  -11.43263
       H   -11.95855    9.61679  -12.78228
       O   -12.71620    9.06488  -12.57972
      H1   -12.40909    8.24220  -12.90462
       H   -15.70665    3.25312  -13.56566
       O   -16.16685    2.58553  -13.04798
      H1   -15.38579    2.01244  -12.92168
       H   -10.34157   13.70686  -15.59836
       O   -10.70156   12.97746  -16.10680
      H1   -11.66165   13.06846  -16.02958
       H   -15.16128   15.19418  -12.82318
       O   -14.55658   15.69506  -12.18256
      H1   -14.87247   16.58163  -12.30730
       H   -13.51487   13.99582  -11.54617
       O   -12.89106   13.26457  -11.59711
      H1   -12.65692   13.35550  -12.52733
       H   -16.82160    5.47080  -14.41212
       O   -17.62825    6.00906  -14.71884
      H1   -18.41150    5.50662  -14.59360
       H   -14.74139    5.68821  -13.62387
       O   -14.88940    4.85919  -14.12373
      H1   -14.46778    5.03077  -14.98505
       H   -10.62286    8.57536  -16.55438
       O   -10.24154    8.71305  -15.68643
      H1   -10.05821    9.67452  -15.75135
       H    -7.43094    8.76697  -11.39456
       O    -7.57877    9.23598  -10.54762
      H1    -7.58684    8.44211   -9.89975
       H   -15.92538    6.57940  -16.88372
       O   -16.79946    6.95364  -17.14857
      H1   -17.38092    6.59067  -16.43154
       H    -8.37733    7.73712  -15.59356
       O    -7.40445    7.90550  -15.58517
      H1    -7.02637    6.99490  -15.51917
       H   -18.07795    8.00269  -19.96032
       O   -18.07440    8.43755  -19.12897
      H1   -17.72321    7.80391  -18.45443
       H    -7.94377   10.83287  -14.68164
       O    -8.73223   11.07139  -15.21784
      H1    -8.95903   11.98433  -15.00759
       H   -12.17961    9.97302  -17.86827
       O   -12.61490   10.84631  -17.55581
      H1   -11.96560   11.43670  -17.92421
       H   -15.11722   10.76737  -14.69877
       O   -16.00389   10.94244  -15.07622
      H1   -16.56208   10.45559  -14.40601
       H   -15.94336   15.07415  -16.88580
       O   -15.74446   14.12621  -17.19481
      H1   -15.04869   13.83311  -16.47397
       H    -8.87901    4.06164  -13.01186
       O    -8.68451    5.03931  -12.97074
      H1    -9.55150    5.41715  -13.33899
       H   -11.39143    8.05627  -19.00064
       O   -10.88780    8.71138  -18.48169
      H1    -9.92732    8.38122  -18.55500
       H   -11.61388   12.42080  -10.60637
       O   -11.42764   11.88838   -9.81102
      H1   -10.58545   12.29805   -9.50642
       H    -8.71319   14.83013  -10.79869
       O    -8.81597   14.08373  -11.41053
      H1    -7.97441   13.62446  -11.59683
       H    -7.65219    7.25737  -18.91469
       O    -8.30115    7.74210  -18.31632
      H1    -7.76509    8.11601  -17.64719
       H    -8.65559   14.25056  -13.40419
       O    -8.59737   13.88633  -14.27135
      H1    -7.95204   14.48867  -14.66682
       H   -18.55157    7.20822  -11.60286
       O   -18.58659    8.18925  -11.55949
      H1   -18.26673    8.41517  -10.70912
       H    -7.32623    8.11203  -13.99599
       O    -7.00084    8.07822  -13.05869
      H1    -6.13858    8.44150  -13.12420
       H   -13.97711    4.23481  -19.79757
       O   -14.71399    4.86025  -19.88077
      H1   -14.75901    5.21813  -18.98996
       H   -13.76760    4.04608  -17.08563
       O   -14.50307    4.72656  -17.04004
      H1   -15.30724    4.19775  -17.31926
       H   -14.73071    7.71679  -12.52443
       O   -14.29722    6.83038  -12.44776
      H1   -13.80512    6.96671  -11.60348
       H   -11.65204   15.43632  -13.37868
       O   -12.39245   14.95008  -13.74273
      H1   -13.11757   15.25857  -13.17613
       H   -13.45950   12.61744  -15.40810
       O   -13.38367   13.46781  -15.81756
      H1   -13.04910   14.04043  -15.08790
       H   -16.11775   10.56932  -19.05343
       O   -15.81513   10.06286  -19.79667
      H1   -16.52651    9.40010  -19.65896
       H   -13.53992   10.07390  -13.75647
       O   -13.52752   10.66990  -14.57240
      H1   -13.19508   10.06803  -15.25624
       H    -9.81270   15.21979  -19.23035
       O   -10.75978   15.37421  -19.35489
      H1   -10.58200   15.78208  -20.22138
       H   -10.72573    7.67688  -13.76628
       O   -11.02062    6.77884  -13.41801
      H1   -11.46626    6.39953  -14.20248
       H   -11.65805    3.60731   -9.89090
       O   -12.08520    4.49101  -10.05694
      H1   -11.26450    5.00025  -10.30428
       H   -18.87121   11.18807  -14.10122
       O   -18.63967   10.80515  -13.22308
      H1   -19.21490   10.03483  -13.11724
       H    -6.42389   12.19088  -14.74705
       O    -6.08595   11.49594  -14.19921
      H1    -5.20870   11.83816  -13.94596
       H    -7.97852   11.39394  -17.52842
       O    -7.67169   11.24635  -18.42772
      H1    -8.37425   11.46968  -19.02158
       H   -11.30641   10.08681   -9.34296
       O   -11.05560    9.18239   -9.42785
      H1   -10.59044    9.07884  -10.25569
       H   -10.60378   17.12695  -12.89639
       O   -10.13732   16.27594  -13.08294
      H1    -9.91606   16.03526  -12.12352
       H   -18.92789   14.25038  -18.28487
       O   -18.54637   13.91520  -17.44980
      H1   -17.61850   13.74288  -17.63099
       H   -15.42677   12.89846   -8.16257
       O   -14.98402   13.41657   -8.86117
      H1   -14.02032   13.51208   -8.58821
       H   -13.98563   14.24749  -18.18990
       O   -13.50531   14.82666  -18.82553
      H1   -12.67031   14.96554  -18.42630
       H   -12.28594   13.90185   -7.36848
       O   -12.62069   14.15039   -8.25205
      H1   -12.21304   13.50156   -8.84877
       H   -10.18119    4.59800  -17.99867
       O    -9.46945    5.03309  -17.42181
      H1    -9.18070    5.76921  -17.93200
       H   -17.86579   11.13236   -9.62986
       O   -16.94884   10.96484   -9.45584
      H1   -16.87689   11.35273   -8.56856
       H   -17.92166   11.75228  -17.19862
       O   -17.20180   11.17540  -17.53949
      H1   -16.66892   11.08270  -16.68681
       H   -15.57001   12.68076  -10.68510
       O   -15.43586   12.46715  -11.61312
      H1   -14.46829   12.65795  -11.66557
       H   -16.83870   14.91772  -13.89493
       O   -15.93209   14.65705  -14.17503
      H1   -16.08340   13.69416  -14.25936
       H   -11.00970    5.87698  -16.19582
       O   -11.95469    5.86997  -15.95028
      H1   -12.35516    5.37930  -16.65743
       H   -13.49370    9.69025   -8.53231
       O   -13.80007   10.00512   -7.61209
      H1   -14.24787    9.15703   -7.46725
       H   -15.58448    9.91106  -11.61783
       O   -15.72662    9.01063  -11.99282
      H1   -16.68906    9.05345  -12.26443
       H   -18.71148   12.51787  -12.20238
       O   -19.04763   13.29822  -11.71789
      H1   -18.38688   13.46050  -10.97237
       H   -12.22705    3.26877  -15.47242
       O   -12.19486    3.01929  -16.42166
      H1   -11.77729    2.13542  -16.38261
       H   -16.50412    8.47466  -10.14716
       O   -17.03376    8.35565   -9.36676
      H1   -17.28535    9.30067   -9.28447
       H   -16.67136   17.02251  -15.71895
       O   -16.20233   16.78739  -16.51303
      H1   -16.55618   17.42014  -17.22301
       H   -10.51032   12.60115  -17.75253
       O   -10.44823   12.27011  -18.67132
      H1   -10.52614   13.15792  -19.07246

