180
frame 10 | Written by MDAnalysis XYZWriter (release 2.4.3)
       H   -11.44256  -17.82652   -6.86648
       O   -11.78456  -18.13125   -7.74528
      H1   -11.63526  -19.06076   -7.64483
       H   -12.47470  -17.21255   -5.56084
       O   -11.68633  -17.45688   -5.13642
      H1   -11.19550  -16.61365   -5.17874
       H   -15.25228  -13.07058   -9.26212
       O   -15.78067  -13.09787   -8.42021
      H1   -15.74785  -14.01001   -8.25537
       H   -12.02444  -15.36592  -14.05748
       O   -11.81866  -15.55784  -15.01132
      H1   -12.34657  -16.36561  -15.15230
       H   -13.29891   -7.73682  -12.29776
       O   -12.67692   -8.29834  -12.72588
      H1   -13.03303   -8.63810  -13.53955
       H    -9.50302  -12.29685  -12.08541
       O    -9.16836  -11.99701  -12.97501
      H1    -8.35972  -12.59323  -13.06420
       H   -13.43298  -18.66224   -7.71014
       O   -14.35513  -18.97475   -7.63681
      H1   -14.32162  -19.60365   -8.35902
       H    -9.55194   -6.95590  -14.66944
       O    -9.71911   -7.64323  -13.97921
      H1   -10.37151   -8.25269  -14.34588
       H   -11.52977   -6.73069  -10.96355
       O   -11.54022   -5.84437  -10.62173
      H1   -12.40437   -5.83079  -10.24961
       H   -13.15468  -11.90886  -10.01507
       O   -13.59087  -12.72374  -10.20440
      H1   -12.84071  -13.32930   -9.99367
       H   -18.29941   -7.73757   -9.53908
       O   -19.07080   -7.90864  -10.15305
      H1   -19.32705   -8.75569   -9.72380
       H   -11.04461  -17.56746   -9.33506
       O   -10.48246  -17.11966   -9.98078
      H1   -10.81153  -16.24264   -9.80926
       H    -8.74405  -10.68227   -5.37560
       O    -9.33436  -10.79958   -6.20322
      H1    -9.98890  -11.40389   -5.80207
       H   -14.22047  -16.74050  -13.83501
       O   -13.62892  -17.54503  -13.87989
      H1   -13.32031  -17.64378  -12.94312
       H   -13.31965   -9.19699   -3.33709
       O   -13.46585   -9.25543   -4.30398
      H1   -14.13317   -8.56078   -4.51522
       H    -8.43385   -9.02858  -13.54944
       O    -7.74648   -9.67689  -13.61058
      H1    -8.22875  -10.50595  -13.48746
       H   -15.91929  -12.65753  -12.86924
       O   -16.04572  -12.76714  -11.90946
      H1   -15.09355  -12.54286  -11.64194
       H   -17.47558  -12.95944  -15.18801
       O   -16.57227  -12.83282  -14.74864
      H1   -16.29985  -13.69869  -15.12458
       H    -9.42388  -15.01937   -5.17080
       O    -9.84562  -14.48643   -5.80779
      H1   -10.42594  -13.92558   -5.26174
       H   -15.70189  -11.30199  -14.70639
       O   -15.29426  -10.42832  -14.73263
      H1   -15.69341  -10.05344  -13.94179
       H   -17.02010   -9.99610   -5.97820
       O   -16.55260   -9.94335   -5.17578
      H1   -17.22295   -9.52032   -4.64410
       H   -12.42097  -11.66708  -11.53567
       O   -12.53611  -11.23174  -12.40646
      H1   -12.22395  -10.32368  -12.19071
       H   -17.72354   -8.08547  -12.62072
       O   -17.52775   -7.15877  -12.84599
      H1   -18.15815   -6.64951  -12.28531
       H   -18.51768  -15.95786  -11.63338
       O   -19.43137  -16.26411  -11.94063
      H1   -19.18400  -17.14995  -12.20451
       H   -17.10903   -8.71154   -8.25675
       O   -16.87924   -7.79850   -8.34091
      H1   -16.16127   -7.77419   -7.70806
       H   -12.71298  -10.41986   -8.27965
       O   -12.50742  -10.25203   -9.22506
      H1   -11.72638   -9.71215   -9.34460
       H   -14.20505  -10.57963  -11.67065
       O   -14.71630   -9.97325  -11.12924
      H1   -14.12087   -9.86413  -10.38440
       H   -19.91657  -14.80398   -7.87599
       O   -19.03713  -14.69998   -7.59628
      H1   -18.80444  -15.53512   -7.16025
       H    -8.80128  -11.26410   -8.23312
       O    -8.73704  -11.36655   -9.23869
      H1    -7.82902  -10.99240   -9.38692
       H    -8.84153  -13.24979   -8.82574
       O    -8.91982  -14.11543   -8.33860
      H1    -8.83158  -13.74699   -7.46406
       H   -12.00994  -11.77294   -4.28088
       O   -11.49904  -12.29026   -4.97772
      H1   -12.04995  -11.83024   -5.74759
       H   -18.15448  -13.55521   -8.77444
       O   -18.31595  -13.25496   -9.72937
      H1   -17.92151  -12.40490   -9.76740
       H   -11.91969  -10.92283  -14.19165
       O   -11.23983  -11.07268  -14.89001
      H1   -10.41705  -11.18120  -14.36962
       H    -8.10658  -15.54165  -11.47523
       O    -7.83781  -14.66296  -11.12229
      H1    -7.67269  -14.65955  -10.17172
       H   -11.57007   -8.86144   -4.76905
       O   -10.58670   -8.68327   -4.69862
      H1   -10.35156   -9.39610   -5.35490
       H   -13.24261  -14.47741  -12.29189
       O   -12.30056  -14.65992  -12.48239
      H1   -12.03253  -13.79683  -12.65869
       H   -18.81792  -16.86289   -9.64863
       O   -18.13751  -17.49776   -9.43305
      H1   -18.55370  -18.04079   -8.65560
       H   -16.05423  -16.58840  -13.91097
       O   -15.81607  -15.70547  -13.60054
      H1   -16.43191  -15.02556  -14.08423
       H   -12.83919  -13.80676   -4.40682
       O   -13.48745  -14.48845   -4.66504
      H1   -14.34809  -14.00988   -4.62258
       H    -9.17149   -8.68046  -10.78147
       O    -9.92381   -8.94945  -10.17560
      H1    -9.50149   -9.75596   -9.93397
       H   -17.01783  -19.32089  -11.65379
       O   -16.47970  -19.12589  -10.86803
      H1   -16.98419  -18.62930  -10.26049
       H    -9.25084   -8.00890   -8.62690
       O    -9.31594   -7.22454   -8.01133
      H1    -8.64479   -7.61353   -7.36729
       H    -9.46012  -13.83333  -10.88819
       O   -10.14170  -13.10476  -10.85838
      H1    -9.71095  -12.44302  -10.27540
       H   -16.40737   -9.81151  -12.06863
       O   -17.19600   -9.85982  -12.54974
      H1   -17.67522  -10.68741  -12.44631
       H   -16.66573  -14.74467  -11.86578
       O   -17.05020  -15.22651  -11.07231
      H1   -17.26297  -14.42275  -10.55145
       H   -12.29513   -6.78092   -6.99366
       O   -12.96328   -7.27971   -7.48339
      H1   -13.54717   -7.58387   -6.78845
       H   -13.41526  -17.74451  -11.09643
       O   -12.54541  -18.01941  -11.42228
      H1   -11.95909  -17.36480  -11.01676
       H   -15.07158  -16.41718   -6.05486
       O   -14.63166  -17.22677   -5.77602
      H1   -14.79117  -17.74923   -6.55033
       H   -11.70383  -12.63420  -16.04648
       O   -11.77140  -13.44566  -16.56704
      H1   -11.69212  -14.07898  -15.79769
       H    -9.27741  -17.21258  -12.51921
       O    -8.58366  -17.32735  -11.78395
      H1    -9.16255  -17.38640  -11.01241
       H   -14.01096  -11.66964   -6.56662
       O   -13.38751  -10.93123   -6.63006
      H1   -13.63115  -10.37274   -5.88990
       H   -18.35878  -11.07750   -6.74332
       O   -18.16073  -10.31064   -7.30519
      H1   -18.80269   -9.76183   -6.84259
       H   -15.40529  -17.46596  -10.77691
       O   -14.92846  -16.76411  -10.27191
      H1   -15.37158  -15.99425  -10.67012
       H   -14.56376   -5.98756   -9.67560
       O   -14.03467   -5.44974   -9.06075
      H1   -13.67177   -6.13956   -8.42897
       H   -15.92308  -16.30632   -8.80324
       O   -16.08402  -15.89519   -7.95742
      H1   -16.80175  -16.50852   -7.76422
       H   -15.61785   -6.85962   -5.48837
       O   -15.12721   -7.61888   -5.85597
      H1   -15.76736   -8.36020   -5.67371
       H   -15.78940   -6.99231  -11.98769
       O   -14.97366   -6.68464  -11.69616
      H1   -14.95402   -5.90398  -12.18657
       H   -12.31230  -15.14037   -7.93058
       O   -11.65988  -14.87741   -8.55477
      H1   -10.82260  -14.65902   -8.06074
       H    -9.40958  -17.17699  -14.93525
       O   -10.01393  -17.26276  -14.09643
      H1   -10.70132  -16.56713  -14.41242
       H   -15.99965  -11.66429   -5.62706
       O   -15.67161  -12.55702   -5.54143
      H1   -15.84956  -13.02523   -6.35094

