180
frame 3 | Written by MDAnalysis XYZWriter (release 2.4.3)
       H    -8.20556    1.38867    8.65534
       O    -7.70908    1.30574    9.49931
      H1    -8.38195    1.71376   10.13088
       H   -17.71141   -0.99104    5.30020
       O   -17.46537   -1.72340    5.80989
      H1   -17.90780   -1.54888    6.64119
       H   -18.41470    1.54893   11.73890
       O   -18.49084    2.09210   10.94771
      H1   -17.65110    2.62374   11.03915
       H   -16.52274   -0.41962   11.97086
       O   -17.33767   -0.81446   12.38605
      H1   -17.47906   -0.23914   13.18156
       H   -12.20300   -1.33569   16.04719
       O   -12.87941   -0.76990   16.49659
      H1   -12.52964    0.10339   16.12081
       H    -9.59747   -1.59995    7.47466
       O   -10.48211   -1.59640    7.13294
      H1   -10.46131   -2.58146    6.79895
       H   -10.68769    3.97361   14.03380
       O   -10.84242    4.51898   13.25404
      H1   -11.30414    5.25048   13.72213
       H   -10.09453    2.02757   15.73483
       O   -10.18581    2.96908   15.64392
      H1    -9.97598    3.27091   16.56180
       H   -10.94862    2.35368    4.37546
       O   -10.91879    1.60120    5.00143
      H1   -11.54967    0.97748    4.54163
       H   -12.71727   -0.79719   10.52369
       O   -11.94617   -0.93017    9.91777
      H1   -12.47387   -1.20559    9.17566
       H   -11.70220   -3.79850   15.13460
       O   -11.63122   -3.31208   15.93894
      H1   -12.24967   -3.91282   16.40697
       H   -14.12741    3.51851   14.89061
       O   -14.76506    3.92034   15.45580
      H1   -14.16953    4.20499   16.12502
       H    -9.86890    4.98165    9.26343
       O    -9.37447    5.69873    9.52616
      H1    -8.95399    5.47339   10.42239
       H    -8.32849    3.29388   14.45620
       O    -7.80680    2.70020   13.88239
      H1    -7.36306    2.02830   14.39974
       H   -11.33829    3.24895    7.96455
       O   -11.23740    4.22107    7.89566
      H1   -10.96658    4.32960    6.95580
       H    -8.27673    2.83130    6.86937
       O    -8.87540    2.11360    7.10965
      H1    -9.61055    2.17100    6.45465
       H   -12.01375    0.58967    8.37922
       O   -12.01122    1.44399    7.86774
      H1   -11.72421    1.10961    7.02485
       H   -12.21152   -6.75553    7.54689
       O   -11.26933   -6.93888    7.53428
      H1   -10.90536   -6.32382    6.85493
       H   -11.50080    0.03102   12.59751
       O   -11.32833   -0.81867   13.08547
      H1   -10.42376   -1.05552   12.76434
       H   -18.64958    1.76856   13.94524
       O   -18.00459    1.13440   14.22080
      H1   -17.61984    1.53824   15.02107
       H   -12.79994   -5.65159   10.39511
       O   -13.19483   -6.52523   10.51190
      H1   -13.74309   -6.71664    9.74547
       H    -9.46244   -3.06679   14.37038
       O    -8.98335   -2.50138   15.00334
      H1    -9.73120   -2.10397   15.47222
       H    -8.91634    5.47412   12.42315
       O    -8.17713    5.11088   11.89926
      H1    -8.48755    4.20684   11.67963
       H   -14.54460   -0.34006   14.01173
       O   -14.99169   -0.60358   14.78463
      H1   -14.22196   -0.66523   15.44515
       H   -12.22632   -1.13831    4.40322
       O   -12.48069   -0.83280    5.29112
      H1   -11.78970   -1.18617    5.85547
       H    -8.66442    2.23543   12.45200
       O    -9.02511    2.42972   11.54155
      H1    -9.94415    2.13278   11.70120
       H   -11.23024    6.32487    9.62634
       O   -12.21944    6.13724    9.45573
      H1   -12.09677    5.57264    8.72993
       H   -16.80187    4.68061   10.71117
       O   -16.66362    3.88816   11.28977
      H1   -16.70920    4.31728   12.17488
       H    -9.04765   -0.00778   15.54428
       O    -9.97258   -0.03066   15.78375
      H1   -10.41302   -0.27060   14.94025
       H   -14.97837    1.38939    6.26059
       O   -15.46191    1.43753    7.10976
      H1   -15.07566    2.25638    7.46797
       H    -5.11398   -1.73430    8.24444
       O    -5.91673   -1.27208    7.82295
      H1    -6.54639   -1.25717    8.56680
       H    -9.70240   -1.63900    9.06864
       O    -8.73158   -1.47018    9.14677
      H1    -8.55925   -0.59449    9.48357
       H   -14.73437   -7.63659    7.64812
       O   -14.03017   -7.03903    7.82153
      H1   -14.30098   -6.25664    7.27454
       H   -14.87951   -3.36124   12.16656
       O   -14.39974   -2.82209   11.50736
      H1   -13.43823   -3.09325   11.58358
       H    -7.97413   -2.76084   10.51870
       O    -7.94498   -3.62144   10.93324
      H1    -7.03738   -3.63836   11.21363
       H    -5.90830    1.14917   12.26102
       O    -6.56497    0.50093   11.95974
      H1    -6.93630    0.88559   11.15832
       H   -13.59750   -5.76775   14.23228
       O   -13.98344   -4.87506   14.40005
      H1   -13.88571   -4.73950   15.37420
       H   -13.75514   -4.13388    5.95890
       O   -13.22534   -4.86515    6.20590
      H1   -13.10054   -5.23372    5.32989
       H    -9.65179   -4.56690    5.53215
       O    -9.95290   -4.32206    6.43932
      H1    -9.19649   -4.39018    6.96884
       H    -7.54831   -3.17368    8.14627
       O    -7.64503   -4.15221    8.02361
      H1    -7.32803   -4.49791    8.89859
       H   -17.79984   -2.70779   11.57444
       O   -17.95303   -3.57362   11.13997
      H1   -18.53765   -3.98079   11.76616
       H   -15.54246    0.65962    9.00151
       O   -15.49114    0.19991    9.86245
      H1   -15.38435   -0.69218    9.43906
       H   -11.54903   -2.60460   10.51340
       O   -11.67477   -3.51172   10.79110
      H1   -10.83140   -3.69497   11.30484
       H   -16.64871   -2.13635   13.31715
       O   -16.37536   -2.99214   13.78027
      H1   -15.58410   -2.75055   14.19813
       H   -18.56903    0.95307    9.57154
       O   -19.01736    0.37389    8.93028
      H1   -18.50030   -0.45434    9.01486
       H   -14.48645   -2.77084    9.09363
       O   -14.40533   -1.89990    8.65235
      H1   -14.54072   -2.17385    7.72719
       H    -8.49562   -1.32820   13.49168
       O    -8.70189   -1.14254   12.56263
      H1    -7.97888   -0.50529   12.36670
       H   -14.04464    4.17003    7.38984
       O   -14.48741    3.68006    8.12531
      H1   -13.73326    3.42783    8.68203
       H   -16.80543   -1.93788   17.40695
       O   -16.10443   -1.34242   17.20452
      H1   -15.96641   -1.39959   16.27274
       H   -14.53632    1.73896   12.18996
       O   -14.42926    2.67560   12.21874
      H1   -15.10933    2.93080   11.60329
       H   -12.42449    1.90851   11.40435
       O   -11.55345    1.84426   11.87752
      H1   -11.67699    2.69231   12.37623
       H   -19.81191   -2.65045    9.20212
       O   -18.96156   -2.29268    8.86970
      H1   -18.35107   -2.68246    9.60881
       H   -16.31683   -4.82387   11.49920
       O   -15.84241   -5.45290   10.91882
      H1   -14.84124   -5.34215   11.10521
       H   -15.70431   -1.80376    5.75532
       O   -14.77025   -2.14142    5.69381
      H1   -14.13376   -1.41987    5.49967
       H    -9.52422    0.61393    4.87890
       O    -8.55742    0.33244    4.91691
      H1    -8.59070   -0.50968    4.44408
       H   -16.55161   -5.52336    8.58940
       O   -16.49938   -5.09786    7.72969
      H1   -17.48518   -5.10594    7.49757
       H   -13.13048   -0.64578   12.84446
       O   -13.90466   -0.34157   12.31193
      H1   -14.18605   -1.15840   11.85651
       H    -9.09655   -3.65530   12.54278
       O    -9.84109   -4.16843   12.92349
      H1    -9.40239   -5.00526   13.11007
       H   -13.27078    2.04642   16.55396
       O   -12.83927    1.89311   15.69894
      H1   -12.01700    2.42428   15.84857
       H   -16.48346    0.86834    4.34261
       O   -17.18154    0.91894    4.98081
      H1   -16.71698    0.95351    5.89333

