180
frame 4 | Written by MDAnalysis XYZWriter (release 2.4.3)
       H    -5.24304   -7.03561  -10.56484
       O    -6.06942   -6.72700  -10.07453
      H1    -5.78323   -6.05087   -9.45049
       H   -12.51681   -6.35881  -18.33909
       O   -12.14156   -7.01175  -17.67720
      H1   -12.14608   -7.86639  -18.29439
       H    -7.14442   -8.93060   -7.04850
       O    -7.59618   -8.83833   -6.19126
      H1    -7.42445   -7.89973   -6.06795
       H   -10.93648   -3.38351   -5.20193
       O   -11.54142   -3.76911   -5.85156
      H1   -11.10940   -4.61681   -6.01174
       H    -5.83898   -2.14203   -9.56987
       O    -6.57967   -1.77527  -10.09926
      H1    -7.04157   -1.22951   -9.44251
       H   -11.50745   -9.03388  -10.14341
       O   -12.01167   -9.19945  -10.96355
      H1   -12.57698   -9.97100  -10.72874
       H   -12.05648   -2.39455  -16.91670
       O   -12.60927   -1.72815  -17.39524
      H1   -13.49723   -1.88958  -17.07180
       H    -9.58646   -8.02931   -8.78185
       O   -10.58351   -7.86470   -8.96220
      H1   -10.47440   -7.28066   -9.70828
       H    -8.75424  -11.30929  -13.56937
       O    -8.17591  -12.00939  -13.94842
      H1    -7.70011  -11.62284  -14.66381
       H   -13.21565   -4.01740   -9.62842
       O   -12.99177   -3.14118   -9.33486
      H1   -13.55147   -3.00954   -8.56091
       H    -9.00682   -9.01318  -16.35889
       O    -8.50321   -8.24264  -16.11231
      H1    -8.53130   -8.15757  -15.19130
       H    -8.45872   -5.65483  -12.57885
       O    -8.88218   -6.01073  -13.36540
      H1    -8.93195   -5.23813  -13.96575
       H   -10.09309   -6.59281  -12.20319
       O   -10.60971   -6.69324  -11.39569
      H1   -11.12764   -7.48160  -11.53732
       H   -15.73322   -4.72652   -9.10556
       O   -16.64325   -4.52560   -8.87270
      H1   -16.51919   -4.16113   -7.93914
       H    -9.08409   -4.02767  -10.95270
       O    -8.24375   -4.50329  -10.90132
      H1    -7.64958   -3.73963  -10.82904
       H   -10.68380   -6.37294   -7.41851
       O   -10.50855   -6.06023   -6.51196
      H1   -10.43467   -6.86681   -6.06331
       H   -16.48258   -7.23655   -9.70263
       O   -16.01880   -7.90041  -10.34789
      H1   -15.58342   -8.50038   -9.72167
       H    -7.15907   -4.18862  -13.91016
       O    -6.50032   -4.27839  -13.20253
      H1    -7.04473   -4.45627  -12.46740
       H    -9.28982  -11.74749  -16.94947
       O    -9.53688  -10.80042  -17.10226
      H1    -9.22487  -10.62189  -18.01974
       H   -11.64425   -3.75003  -10.62801
       O   -11.41670   -4.09743  -11.47928
      H1   -11.29622   -5.06485  -11.32841
       H    -9.64656  -11.02070   -7.19171
       O   -10.48716  -10.65560   -6.80884
      H1   -10.81454  -11.44852   -6.18814
       H    -8.66489    0.18961   -9.87859
       O    -9.03228    0.28957  -10.75540
      H1    -8.68310   -0.40500  -11.30846
       H    -8.41682   -2.10814  -13.45396
       O    -8.32763   -1.78097  -12.57653
      H1    -7.40341   -1.91823  -12.37782
       H    -7.43815   -8.21375  -13.52297
       O    -8.00511   -8.84421  -12.95972
      H1    -8.63567   -8.24064  -12.56998
       H   -12.60596   -1.35917  -13.53205
       O   -12.72577   -0.43148  -13.23173
      H1   -11.82022   -0.04355  -13.45463
       H   -10.12496   -3.08167  -14.40694
       O    -9.21672   -3.48388  -14.62359
      H1    -9.30550   -3.44328  -15.58469
       H    -3.74017   -8.55322  -13.92417
       O    -4.37251   -7.83074  -14.03659
      H1    -4.78797   -8.06006  -14.90243
       H   -10.70990  -11.70669  -12.49879
       O   -10.78307  -10.83856  -12.87794
      H1   -11.19109  -10.27244  -12.20228
       H   -15.46944   -8.70083  -12.69663
       O   -14.68658   -8.57076  -13.17579
      H1   -14.33427   -7.77631  -12.70808
       H   -14.70235  -10.05511  -10.04715
       O   -14.80055   -9.80989   -9.13009
      H1   -14.12975   -9.16401   -8.91130
       H   -12.91236  -11.31352   -8.28276
       O   -12.12529  -11.40803   -8.79924
      H1   -11.45296  -11.24689   -8.09186
       H   -14.92608  -11.38545  -11.99367
       O   -14.28676  -10.75906  -11.53890
      H1   -14.09751  -10.11550  -12.25000
       H   -11.63426  -10.76452  -14.50521
       O   -11.92283  -10.77980  -15.45269
      H1   -11.05488  -10.99772  -15.91658
       H    -4.75101   -8.20080   -7.84360
       O    -5.42827   -8.89534   -8.05873
      H1    -5.92146   -8.51039   -8.80959
       H   -13.65007   -0.70014  -11.12484
       O   -13.99687   -0.63459  -10.18574
      H1   -13.49594   -1.39343   -9.80852
       H   -11.48034   -8.74076   -5.09559
       O   -10.58541   -8.33490   -5.26452
      H1   -10.09248   -9.01660   -5.75775
       H    -8.25866   -5.17352   -9.34633
       O    -8.55700   -5.43375   -8.45314
      H1    -8.31183   -6.38219   -8.40009
       H    -7.52245  -10.40766  -11.42732
       O    -7.64113  -10.55048  -10.43691
      H1    -6.74546  -10.83582  -10.18282
       H   -14.86555   -3.57952  -13.57204
       O   -15.15366   -4.34285  -14.10135
      H1   -14.37524   -4.46925  -14.71367
       H    -9.48679   -6.53522  -18.68457
       O    -8.69835   -6.98269  -18.44593
      H1    -8.85766   -7.26417  -17.52700
       H   -14.43621   -8.97391  -16.14253
       O   -14.63280   -9.16851  -17.06562
      H1   -14.66320  -10.12851  -17.02015
       H    -6.47437   -5.03624   -7.49593
       O    -5.57892   -5.17034   -7.77057
      H1    -5.32178   -5.92136   -7.20475
       H    -9.53283   -2.02822  -17.25068
       O    -9.66187   -2.98570  -17.20453
      H1    -8.94185   -3.25407  -17.81393
       H    -6.14921  -10.44936  -16.21385
       O    -6.70218  -11.26489  -16.11669
      H1    -7.30489  -11.10175  -16.81773
       H    -9.54359   -0.36691  -13.29906
       O   -10.01003    0.13639  -13.92322
      H1    -9.77436    1.08023  -13.68900
       H    -7.92421   -9.05791   -9.68565
       O    -7.98996   -8.21709   -9.18025
      H1    -7.42042   -7.66522   -9.66735
       H    -9.33724  -13.85675  -11.56272
       O    -9.71930  -13.19612  -12.15840
      H1    -8.93124  -12.73682  -12.47963
       H   -11.64928   -3.21217  -13.10983
       O   -11.70938   -2.94205  -14.04276
      H1   -11.92610   -3.82622  -14.40495
       H   -13.10747   -9.03508   -7.14543
       O   -13.07963   -8.27098   -7.72855
      H1   -12.19882   -8.22273   -8.06244
       H   -16.13312   -6.32604  -15.11650
       O   -16.50728   -7.20605  -15.09715
      H1   -15.89126   -7.58783  -14.46030
       H    -3.43754   -7.15458  -12.00413
       O    -3.61743   -7.43067  -11.08746
      H1    -3.24125   -6.65344  -10.63533
       H    -8.69549   -2.66938   -5.74657
       O    -8.14546   -3.41856   -6.04996
      H1    -8.68290   -3.82344   -6.73044
       H    -4.25814   -2.19331  -13.48786
       O    -5.11730   -2.12839  -13.07487
      H1    -5.49778   -3.00405  -13.29578
       H   -12.82861   -5.18331  -16.52684
       O   -12.91393   -4.92735  -15.57645
      H1   -12.55970   -5.73071  -15.11894
       H   -14.09855   -6.23577  -10.06694
       O   -13.99388   -5.77561   -9.20502
      H1   -13.72264   -6.39469   -8.57206
       H    -4.22323   -8.37010  -16.61058
       O    -5.17378   -8.60479  -16.65380
      H1    -5.46622   -8.34436  -17.52962
       H   -15.46170   -6.66095  -11.51682
       O   -14.65678   -6.16034  -11.84147
      H1   -15.09080   -5.50382  -12.46888
       H    -6.41302   -5.14450  -17.71263
       O    -6.65155   -4.37905  -18.26154
      H1    -6.61559   -4.76186  -19.21211
       H   -12.50253   -9.17592  -15.37528
       O   -12.75518   -8.20622  -15.37258
      H1   -12.62740   -7.83098  -16.23030
       H    -6.31141   -6.99806  -15.83996
       O    -6.47089   -5.98960  -15.84833
      H1    -5.74007   -5.77221  -15.23540

