180
frame 1 | Written by MDAnalysis XYZWriter (release 2.4.3)
       H     4.97032    7.45680  -13.86993
       O     4.52740    7.43003  -13.00869
      H1     3.63219    7.68614  -13.33923
       H     7.22544   10.72515   -9.24238
       O     6.95164   11.50222   -9.79771
      H1     6.52824   12.05246   -9.12014
       H     9.71647   13.20376   -8.38334
       O     9.16156   13.10089   -7.64562
      H1     9.58991   13.65384   -6.99138
       H     3.20197   10.80425  -12.04012
       O     3.57073   10.96958  -12.94214
      H1     4.47244   10.81431  -12.67926
       H     6.77660   10.02935  -13.00447
       O     6.90436   10.57966  -13.76093
      H1     7.88216   10.47426  -13.89761
       H     8.77373   15.40059   -5.03125
       O     9.49907   15.65924   -4.44491
      H1     9.20751   16.26645   -3.76095
       H     6.08855    8.66349   -4.52880
       O     5.56493    7.86300   -4.80709
      H1     4.64049    8.15024   -4.55155
       H    12.40069    6.52607   -5.62793
       O    11.92226    7.35047   -5.38041
      H1    12.46275    7.69508   -4.68330
       H    11.16513    8.53671  -13.01376
       O    10.42864    7.95532  -12.90367
      H1    10.86835    7.22259  -13.37333
       H     2.05525    8.54766   -8.60308
       O     1.38780    8.20516   -9.24312
      H1     1.47921    7.22301   -9.09570
       H    11.22772   15.29088  -12.53067
       O    11.16721   14.38318  -12.27941
      H1    10.26083   14.16956  -12.02378
       H    10.07801    5.10868   -7.46395
       O    10.66373    4.39444   -7.12129
      H1    10.03316    3.70324   -6.92349
       H    10.19989    8.10959   -4.14252
       O     9.69127    7.84610   -3.39838
      H1     9.61586    6.88302   -3.39897
       H     7.12730   12.74573  -14.93381
       O     7.57146   13.06904  -15.70994
      H1     8.45801   13.35901  -15.51740
       H    11.73921   14.70708   -7.97404
       O    12.05020   14.65819   -7.02395
      H1    11.79690   15.53530   -6.65570
       H     5.88213    7.56952   -6.36640
       O     6.16570    7.72587   -7.29914
      H1     6.12886    6.77926   -7.64129
       H    11.14880   14.99456  -10.44986
       O    11.00905   15.50881   -9.64198
      H1    11.88378   15.96082   -9.58011
       H     2.05982   12.01328  -13.77256
       O     1.20923   12.24335  -14.15472
      H1     1.42286   12.20447  -15.05849
       H     1.19468   10.32018  -11.80952
       O     1.63352   10.49704  -10.96233
      H1     1.61470    9.56219  -10.65889
       H    11.56858    8.04264   -7.04545
       O    11.37699    8.43573   -7.89827
      H1    10.72232    7.87512   -8.31753
       H    11.73612   13.82359   -4.59709
       O    11.58148   12.87294   -4.37767
      H1    10.67721   12.61454   -4.52964
       H     3.43093   15.43133   -5.81130
       O     2.76172   14.75495   -5.69540
      H1     2.33824   15.14829   -4.89060
       H     4.40661   10.99478   -5.45283
       O     5.35475   10.79805   -5.64387
      H1     5.18173    9.84080   -5.73448
       H     7.86103    6.09237  -11.28780
       O     8.87348    6.06421  -11.37260
      H1     9.07346    6.87739  -11.87000
       H     5.00979   17.23147   -8.26883
       O     4.50549   18.05161   -8.26990
      H1     3.66257   17.71911   -8.63805
       H     1.83253    9.38093  -15.13572
       O     2.29792    8.98855  -14.44705
      H1     2.68363    9.83800  -14.04953
       H     3.77601   11.18144   -9.80604
       O     4.39194   10.41831   -9.80403
      H1     5.20008   10.90468  -10.05685
       H     5.00819   12.64243   -3.07220
       O     5.90232   12.76085   -3.47596
      H1     5.83333   12.02391   -4.08669
       H     9.29893   11.44888   -5.56199
       O     9.06507   11.86958   -4.70360
      H1     8.45172   12.64829   -4.94923
       H     6.62782    4.64521   -8.84608
       O     6.72381    5.16933   -8.03634
      H1     6.09525    4.62643   -7.56487
       H     9.71282    9.18075  -14.58632
       O     9.68925   10.11616  -14.92215
      H1    10.48207   10.48143  -14.50009
       H     4.37756    8.66348   -7.81633
       O     3.48710    9.03316   -7.75100
      H1     3.53218    9.77439   -8.37731
       H     8.77010    7.00810   -8.23921
       O     9.37826    6.40776   -8.65456
      H1     9.01557    6.52296   -9.57190
       H     5.79445    8.19328  -12.02375
       O     6.67507    8.55972  -11.77836
      H1     6.32082    9.06318  -11.00010
       H     0.36683   11.81769  -10.53353
       O    -0.09433   12.65590  -10.33743
      H1    -1.02208   12.48428  -10.65009
       H     7.83741   10.56369   -3.83410
       O     7.51179    9.70547   -3.55006
      H1     8.35445    9.18633   -3.57006
       H    14.67881   12.27955   -9.61793
       O    13.78078   12.12371   -9.99005
      H1    13.69025   12.81404  -10.66530
       H     6.60281   16.21558   -8.69319
       O     5.83650   15.78137   -8.25813
      H1     5.87012   14.82770   -8.26630
       H     8.69657   11.78634  -11.12096
       O     9.62996   11.81334  -10.97940
      H1     9.70458   11.29930  -10.18200
       H     8.49856   15.01080  -13.17140
       O     8.31461   14.39844  -12.47225
      H1     7.36222   14.51388  -12.21541
       H     7.19438    8.85072   -8.13465
       O     7.87629    9.21983   -8.78439
      H1     8.60021    9.33211   -8.10227
       H     4.67698    6.00900  -12.26771
       O     5.12931    5.17123  -11.88481
      H1     5.56642    4.98924  -12.70560
       H     6.13166   17.24755  -10.20682
       O     7.07006   17.58799  -10.20942
      H1     6.98022   18.14919  -11.08159
       H     7.19687   13.95728   -6.54294
       O     7.55999   14.00965   -5.63232
      H1     6.71816   13.66756   -5.07984
       H     5.39905   13.84172  -12.17186
       O     5.77062   14.37526  -11.43020
      H1     5.15202   15.13243  -11.42069
       H    10.19193    4.82910   -9.72773
       O    10.75983    4.13133  -10.12298
      H1    11.44481    4.69899  -10.49930
       H    12.20609   11.38713  -13.07349
       O    11.72984   10.67014  -12.67704
      H1    11.07144   10.97194  -12.03517
       H    13.46140   10.60304   -9.08829
       O    13.78026    9.87416   -8.53625
      H1    12.97733    9.29898   -8.41965
       H     2.30286   12.94691   -8.65051
       O     3.16543   12.87171   -9.11689
      H1     3.07132   13.36863   -9.94184
       H     5.99633   12.13161   -7.18603
       O     5.70661   12.85568   -7.85274
      H1     4.76234   12.94286   -7.73798
       H    10.29421   10.19691   -7.03034
       O     9.37906   10.43170   -6.97137
      H1     9.28607   11.27824   -7.52997
       H    13.07412   11.58178   -5.87343
       O    13.28437   10.68758   -6.07590
      H1    13.45311   10.59797   -7.05507
       H     5.54843    2.96040  -10.01382
       O     6.40054    3.41038  -10.17723
      H1     6.27525    4.19640  -10.71519
       H    14.02953    9.55014  -12.87481
       O    14.63312    9.76776  -12.10033
      H1    13.97662    9.99443  -11.42521
       H     3.66492   17.21902  -11.85192
       O     4.50752   16.88099  -11.48323
      H1     5.07016   17.28149  -12.21837
       H     2.76813   12.99146   -5.37261
       O     2.81929   12.04753   -5.41476
      H1     2.04106   11.74519   -4.85418
       H     9.90715   16.94484   -9.39677
       O     9.31751   17.71737   -9.19973
      H1     8.51067   17.38679   -9.56475
       H     3.05324    8.89837   -5.98135
       O     2.87413    8.65309   -5.05966
      H1     2.22850    7.94706   -5.25957
       H     4.28354   12.80622  -13.88136
       O     4.76452   13.62888  -13.99944
      H1     5.25423   13.39365  -14.80633
       H    13.59917   13.40480  -13.48835
       O    12.85124   12.96164  -13.90824
      H1    12.07205   13.35979  -13.46064

