180
frame 0 | Written by MDAnalysis XYZWriter (release 2.4.3)
       H    13.51434  -16.23820  -18.14380
       O    14.49243  -16.05042  -18.31111
      H1    14.93705  -16.87183  -18.10214
       H    16.91471  -18.88153  -18.71854
       O    17.40697  -19.05047  -19.54589
      H1    18.19656  -18.55124  -19.47346
       H    18.43635   -6.68989  -17.20460
       O    17.65497   -7.10283  -16.84604
      H1    17.55264   -7.70459  -17.65884
       H    14.61272   -9.64140  -12.84084
       O    14.58104   -9.28618  -13.71301
      H1    15.11752   -8.48547  -13.68149
       H     7.43718  -16.78683  -10.63452
       O     7.87115  -17.44573  -11.16166
      H1     8.79648  -17.32221  -10.86479
       H    11.11356   -7.88563  -17.49389
       O    11.86300   -8.41749  -17.75370
      H1    12.00264   -8.20494  -18.67965
       H    18.63471  -17.56648  -11.09014
       O    18.01708  -18.09054  -10.46371
      H1    17.19772  -17.70695  -10.70041
       H    14.92702  -19.31739  -17.28978
       O    15.52459  -18.53045  -17.35551
      H1    15.40759  -18.05898  -16.51416
       H    13.62986  -10.46770   -9.05475
       O    14.35740  -11.02434   -8.70189
      H1    14.75226  -10.34487   -8.07999
       H    17.83160  -15.28705   -5.99426
       O    18.45542  -15.65137   -5.32150
      H1    18.40767  -16.60135   -5.42210
       H    13.67464  -18.85269   -8.06275
       O    14.67097  -18.97069   -8.05601
      H1    14.84159  -19.62012   -7.33815
       H    16.67160  -16.35801  -15.25706
       O    15.90251  -16.95864  -15.03462
      H1    16.15966  -17.74078  -14.54725
       H    12.48409  -13.42821  -14.81473
       O    12.98459  -14.14392  -15.22496
      H1    13.63531  -14.24803  -14.44711
       H     9.31016  -17.03471  -13.52551
       O     8.42207  -16.88283  -13.97604
      H1     7.83365  -16.85721  -13.19252
       H    11.83254   -9.19490   -9.41426
       O    12.29097   -9.78748  -10.05299
      H1    11.66572  -10.52179  -10.09701
       H    17.20688  -19.64290  -14.59409
       O    17.09370  -19.10625  -13.77704
      H1    16.80389  -19.73195  -13.10543
       H    16.74906  -14.15889  -10.22559
       O    17.59296  -13.87807   -9.85785
      H1    18.08501  -14.70154  -10.02643
       H    18.67197  -10.43350  -12.87537
       O    18.29107  -11.23590  -12.50558
      H1    18.36473  -11.01200  -11.57353
       H    13.16996   -9.35781  -16.46398
       O    13.38616  -10.28961  -16.31500
      H1    13.99509  -10.13936  -15.56321
       H    18.83416  -11.07292  -17.00014
       O    18.23564  -11.68540  -17.47810
      H1    17.33350  -11.22658  -17.44872
       H    11.87922  -15.92798  -11.23615
       O    12.50009  -15.34765  -11.73983
      H1    13.23719  -15.25906  -11.11053
       H    17.21625  -12.39734   -7.30257
       O    17.58886  -11.67702   -7.92209
      H1    17.85678  -12.15137   -8.73713
       H    12.77803  -16.16060  -13.80244
       O    12.99648  -16.80560  -14.52214
      H1    13.87578  -16.50161  -14.78262
       H     9.32454   -9.26098  -14.01563
       O     8.96530   -8.58577  -14.58751
      H1     9.55510   -7.86742  -14.40340
       H    12.16758  -11.57570   -7.05307
       O    11.29955  -11.15122   -6.87033
      H1    11.58834  -10.31400   -6.41394
       H    18.83134  -16.85630   -9.08410
       O    19.17742  -16.12063   -8.52003
      H1    18.54897  -16.09688   -7.82592
       H    15.62034  -14.03796  -14.12785
       O    15.34599  -14.68439  -13.47047
      H1    15.66958  -15.46565  -13.92039
       H    10.93467  -17.97607  -10.38427
       O    10.50233  -17.07256  -10.46705
      H1    10.43197  -16.71242   -9.59975
       H    16.51228   -6.36779  -13.49761
       O    16.71816   -7.04483  -12.81670
      H1    17.54577   -6.68487  -12.42710
       H    15.11074  -15.85848  -10.73874
       O    15.08678  -14.87947  -10.71199
      H1    15.02927  -14.61049  -11.69791
       H    10.48365  -12.07939  -15.81441
       O    10.57968  -12.64389  -14.99772
      H1     9.89766  -12.22132  -14.40176
       H    14.59690   -5.74954  -14.96754
       O    15.54416   -5.69729  -14.85161
      H1    15.88031   -6.33125  -15.51230
       H    15.70132  -10.71800  -14.19346
       O    16.39765  -10.86145  -14.82721
      H1    17.03522  -11.30252  -14.22303
       H    10.84847  -10.39496  -17.48917
       O    10.12484  -11.05639  -17.26985
      H1     9.42228  -10.42510  -17.07440
       H    17.07249  -10.16520   -9.11949
       O    17.40326   -9.61265   -9.90950
      H1    17.94600   -8.97099   -9.47574
       H     9.39797  -14.13462  -15.97206
       O     8.75682  -14.57899  -16.53225
      H1     8.65072  -15.42967  -16.13789
       H    18.20831   -9.04859  -14.90403
       O    18.71845   -8.81320  -14.08308
      H1    18.05096   -8.43469  -13.50352
       H    17.86247  -17.23962  -17.28986
       O    17.61547  -16.61276  -17.88498
      H1    17.28901  -15.91624  -17.29284
       H    12.02501  -19.76329  -15.88007
       O    11.75426  -19.66440  -14.98075
      H1    11.91546  -18.70241  -14.91661
       H    15.04280  -15.35739   -5.44541
       O    14.81082  -14.42948   -5.64522
      H1    14.93848  -13.94639   -4.81299
       H    11.71193  -13.81684   -8.34067
       O    10.75435  -13.86884   -8.56478
      H1    10.75956  -14.83426   -8.33246
       H    19.84208   -9.24936  -19.11026
       O    18.95362   -8.99373  -19.32089
      H1    18.99749   -8.02368  -19.56542
       H    19.78623  -18.48744  -17.23597
       O    19.02743  -18.76732  -16.58812
      H1    19.52674  -18.66589  -15.75338
       H     7.81116  -10.70773  -13.40219
       O     8.49613  -11.39494  -13.45429
      H1     8.72923  -11.55575  -12.54742
       H     9.87846  -16.81045  -18.64824
       O     9.53946  -17.68382  -18.98088
      H1     9.02344  -17.30538  -19.76913
       H    15.85519  -14.51217   -7.41830
       O    16.80224  -14.31444   -7.36531
      H1    17.00924  -14.05692   -8.26005
       H    12.35494  -15.61203  -16.56000
       O    12.03416  -15.84037  -17.48395
      H1    11.63936  -16.70919  -17.35576
       H    12.27475   -9.74021  -14.52631
       O    11.66958   -9.14965  -14.09717
      H1    12.30495   -8.53138  -13.69241
       H    13.66587  -12.77870   -8.24122
       O    13.34149  -13.57800   -7.82863
      H1    13.85143  -13.80601   -7.07135
       H    19.14594  -14.68420  -13.70771
       O    18.84959  -14.02738  -14.32320
      H1    18.54614  -13.31284  -13.74895
       H    16.37281  -11.27677  -11.76248
       O    15.43203  -11.21432  -11.68348
      H1    15.25658  -11.23002  -10.77866
       H    14.96336  -10.58478  -17.59247
       O    15.60170  -10.84254  -18.27211
      H1    15.11023  -11.49288  -18.82271
       H    15.75615   -7.10111  -10.99855
       O    15.33723   -7.49841  -10.24012
      H1    15.79480   -8.34016  -10.26732
       H    13.63528   -7.19769  -11.12139
       O    12.84225   -7.44091  -11.58394
      H1    12.64748   -8.29258  -11.24217
       H    13.16341   -5.75405  -18.68809
       O    13.38284   -6.04566  -17.74468
      H1    13.15968   -6.98937  -17.78236
       H    11.04753  -12.86042  -10.13588
       O    10.81768  -12.49751  -10.99349
      H1    11.40309  -12.93788  -11.62512
       H    13.96837  -13.93340  -18.43322
       O    14.04392  -13.17973  -19.02053
      H1    14.81710  -13.27833  -19.57670
       H    17.39213  -14.03153  -15.42749
       O    16.51074  -13.98285  -15.89858
      H1    16.50581  -13.05101  -16.13407
       H    14.95178  -18.43944  -11.39112
       O    15.21177  -17.72931  -10.79703
      H1    15.12713  -18.25083   -9.96119
       H     8.75263  -12.61674  -10.45914
       O     7.86988  -12.27375  -10.72347
      H1     7.97132  -11.32354  -10.63337

