180
frame 3 | Written by MDAnalysis XYZWriter (release 2.4.3)
       H    -2.00683  -10.22742  -14.19330
       O    -1.66457   -9.49282  -13.63633
      H1    -2.21142   -9.65104  -12.83944
       H    -4.12398  -12.56157  -15.76152
       O    -4.80791  -13.18042  -16.05954
      H1    -5.50861  -12.55526  -16.33722
       H    -5.48617  -13.84618  -14.17765
       O    -5.83087  -13.83057  -13.28676
      H1    -6.60452  -13.26911  -13.33633
       H    -3.68626  -15.68336   -5.73254
       O    -3.87732  -15.83369   -4.78875
      H1    -2.97019  -15.85784   -4.46604
       H    -1.19525  -14.92446   -9.78693
       O    -1.41359  -13.98183   -9.82523
      H1    -2.27058  -13.93129  -10.25016
       H    -2.28596  -11.50426  -15.90607
       O    -2.78436  -11.53734  -15.06426
      H1    -2.26716  -12.30688  -14.66326
       H    -2.24833  -11.48462  -18.37027
       O    -1.67627  -11.27353  -17.60613
      H1    -1.11086  -12.02809  -17.59712
       H     1.90590  -16.25316   -9.56478
       O     1.75328  -16.72775   -8.79959
      H1     1.77190  -16.02481   -8.12922
       H    -8.91806  -11.54759  -13.71324
       O    -8.24443  -12.12416  -14.06970
      H1    -7.95716  -11.49321  -14.79658
       H    -2.37243  -16.00930  -15.36192
       O    -1.48198  -16.23720  -15.24904
      H1    -1.35954  -16.30861  -14.28761
       H     3.60619  -14.86128  -14.39012
       O     3.91361  -15.56399  -13.74859
      H1     4.81067  -15.31839  -13.51856
       H    -1.52374  -10.66027   -8.03662
       O    -1.52839  -10.98444   -8.92257
      H1    -1.50555  -11.94935   -8.89643
       H     2.43277  -12.97104  -11.95387
       O     3.41410  -12.90887  -11.94585
      H1     3.64977  -13.22378  -12.83309
       H     0.82649  -18.37341  -17.73214
       O    -0.05176  -18.08756  -18.02308
      H1    -0.56723  -18.31467  -17.21253
       H     0.09810  -13.87064  -16.54824
       O     0.09680  -13.68151  -15.61040
      H1    -0.32152  -14.51956  -15.24877
       H     3.12711  -15.50477  -12.19707
       O     2.79741  -16.00568  -11.41612
      H1     2.77181  -16.92355  -11.75147
       H    -4.18759  -18.57151   -9.88187
       O    -4.78489  -19.22982  -10.29358
      H1    -4.80145  -19.81535   -9.52885
       H   -10.34683  -18.24542   -9.84248
       O    -9.68454  -17.50350   -9.92823
      H1   -10.14801  -16.71860   -9.56024
       H    -5.70647  -18.36541  -15.80758
       O    -4.85092  -17.99391  -15.52693
      H1    -4.40913  -18.65790  -14.95244
       H     0.72380  -16.85217  -13.86512
       O     0.27276  -16.51451  -13.05267
      H1     1.02171  -16.04159  -12.65991
       H    -8.34385  -16.27816  -17.14951
       O    -7.60030  -16.00406  -16.64268
      H1    -7.40146  -15.12322  -16.96541
       H    -0.93627  -12.63271   -6.47791
       O    -0.23864  -12.38921   -5.85580
      H1    -0.54419  -11.43131   -5.80367
       H    -6.55270   -9.46780  -13.20973
       O    -7.51009   -9.29297  -13.18693
      H1    -7.60922   -8.32669  -12.92252
       H    -6.41191  -14.78074   -7.82353
       O    -7.31749  -14.55857   -7.75702
      H1    -7.17935  -13.68249   -7.35551
       H    -2.30321   -9.75047  -10.23743
       O    -2.81857   -9.60226  -11.11039
      H1    -3.00743   -8.70381  -10.96775
       H    -4.56056  -15.19297  -12.85929
       O    -3.88343  -15.83810  -12.81941
      H1    -4.41241  -16.65966  -12.67272
       H    -3.58072   -8.80230  -14.24486
       O    -4.47972   -9.15398  -14.06823
      H1    -4.81124   -9.30075  -14.96879
       H    -2.12696  -14.37713  -13.03249
       O    -1.84382  -13.55531  -13.40568
      H1    -0.85863  -13.57934  -13.32342
       H    -9.61639  -13.01665  -15.56619
       O    -9.45282  -12.92684  -16.48500
      H1    -9.96961  -13.57627  -16.96105
       H    -5.21085  -11.75333   -9.78166
       O    -5.77573  -11.16619   -9.33657
      H1    -5.10578  -10.71013   -8.74230
       H    -4.49476  -13.20171  -11.67513
       O    -3.86520  -12.74954  -11.12392
      H1    -3.99425  -11.81787  -11.48512
       H    -7.19251  -15.53686  -13.00973
       O    -7.65855  -16.21342  -12.54642
      H1    -8.45174  -16.37956  -13.11128
       H    -7.65190  -15.34007  -10.91391
       O    -7.33481  -14.45299  -10.58263
      H1    -7.54499  -14.49602   -9.63071
       H    -0.40629  -18.35582   -9.82362
       O    -0.58129  -18.11926   -8.91161
      H1     0.19499  -17.60394   -8.73709
       H    -7.93252  -17.65597   -9.13438
       O    -7.02182  -17.93780   -8.94433
      H1    -6.63615  -18.15253   -9.76634
       H    -3.33220  -12.72673   -6.54228
       O    -2.79870  -13.20387   -7.23587
      H1    -3.46765  -13.83456   -7.64766
       H   -10.49741  -19.18637  -15.44243
       O    -9.68690  -18.96532  -14.87147
      H1    -9.85184  -18.03596  -14.71541
       H     0.99159  -16.49355  -16.04475
       O     1.49269  -17.19758  -15.66855
      H1     2.33155  -17.06207  -16.03193
       H    -4.74044  -14.82331  -16.95739
       O    -4.38174  -15.70326  -17.19873
      H1    -4.74770  -16.39293  -16.60381
       H    -8.00768  -10.48735  -11.53597
       O    -8.21076  -10.95624  -10.72658
      H1    -7.31623  -11.10733  -10.36594
       H     2.24145  -18.76256  -11.55417
       O     3.08339  -18.69332  -12.05701
      H1     3.76342  -18.85385  -11.40149
       H    -6.25786  -10.42210  -16.94562
       O    -6.64795  -11.27837  -16.71376
      H1    -7.37719  -11.31929  -17.38234
       H   -10.09578  -12.88718  -11.48568
       O   -10.90924  -13.39162  -11.34662
      H1   -10.75370  -14.22708  -11.81635
       H     0.71008  -14.59129  -18.93808
       O     0.39892  -13.65169  -18.73866
      H1     0.24087  -13.35558  -19.64449
       H    -0.34388  -19.53793  -11.68599
       O     0.12705  -18.79336  -11.32120
      H1    -0.03689  -18.00835  -11.90823
       H     1.83198  -13.40179  -15.14044
       O     2.72995  -13.32047  -14.71276
      H1     3.38075  -13.16739  -15.44301
       H    -3.96890  -19.16790   -5.97961
       O    -4.35788  -18.68006   -6.74194
      H1    -5.27145  -18.43227   -6.39256
       H     0.69808  -12.65685  -12.31052
       O     0.63784  -13.56524  -11.95154
      H1    -0.13804  -13.53729  -11.34148
       H    -0.59174  -15.47271   -6.23191
       O    -0.76359  -15.38372   -7.19673
      H1    -1.35374  -14.61427   -7.24494
       H    -7.57933  -18.19628  -12.08667
       O    -8.00797  -18.97641  -11.70401
      H1    -8.50986  -18.59554  -10.97697
       H    -6.85007  -17.27119   -7.13457
       O    -6.76838  -17.52641   -6.18202
      H1    -6.73703  -16.67178   -5.76944
       H    -1.51934  -17.80036  -15.25683
       O    -1.45778  -18.80009  -15.37027
      H1    -1.72222  -19.10853  -14.50108
       H    -3.96969  -15.73284   -8.46189
       O    -4.54089  -14.95963   -8.26720
      H1    -4.65901  -14.55451   -9.16950
       H    -1.13815  -16.39084  -18.78580
       O    -1.88676  -15.83976  -18.96917
      H1    -2.44915  -15.83081  -18.14377
       H    -7.51081  -16.57033  -19.22276
       O    -6.67270  -16.61715  -19.73070
      H1    -5.99746  -16.44781  -19.03678
       H    -0.26991  -10.69453  -13.45972
       O     0.60272  -11.11979  -13.23777
      H1     0.85060  -10.59577  -12.45444
       H    -3.41007  -17.88979   -8.24794
       O    -3.18671  -17.28335   -8.98083
      H1    -2.19009  -17.17871   -8.85936
       H   -10.54046  -14.79548   -8.38000
       O   -11.00174  -15.11792   -9.13942
      H1   -10.88073  -14.43517   -9.84325
       H    -9.10252  -15.74775  -15.33467
       O    -9.62888  -16.15987  -14.57204
      H1   -10.41932  -15.65056  -14.67015
       H    -3.77809  -19.66156  -12.81641
       O    -3.34151  -18.82302  -13.04960
      H1    -3.40260  -18.26767  -12.24496

