180
frame 1 | Written by MDAnalysis XYZWriter (release 2.4.3)
       H   -14.85398   14.57494    5.61559
       O   -14.19736   15.24230    5.72214
      H1   -13.67888   15.31195    4.90895
       H    -9.34156    6.79363   13.86788
       O    -9.39164    7.73488   13.54046
      H1    -9.29787    8.11198   14.43850
       H   -15.35275    7.24224   10.50411
       O   -15.66437    6.52321   11.06521
      H1   -16.60236    6.74669   11.26011
       H    -5.09925    8.65962    7.81563
       O    -5.85462    9.11369    7.41342
      H1    -6.63042    8.51924    7.62525
       H   -13.16666    8.96506   12.74753
       O   -13.64214    9.69231   13.20617
      H1   -12.88229   10.03883   13.69408
       H   -11.55348   10.23152    0.98212
       O   -12.11662   10.85135    1.47512
      H1   -12.64575   11.21632    0.74169
       H   -14.19686   10.05362    6.87720
       O   -15.03917    9.54031    6.85894
      H1   -15.09883    9.27700    7.81500
       H   -14.83727    7.73673   13.74495
       O   -14.27449    6.94035   13.48478
      H1   -14.66005    6.69689   12.59256
       H    -9.28518   12.67996    9.20269
       O    -8.81832   11.89572    8.76868
      H1    -9.45011   11.17354    8.95199
       H    -9.97598    5.13384    8.87245
       O    -9.92661    6.05506    9.03331
      H1    -9.51205    6.03039    9.93802
       H   -18.79315    9.77348    7.02315
       O   -18.54069   10.66412    7.15818
      H1   -17.58891   10.59764    7.16974
       H    -9.84779   17.61856    9.07204
       O    -9.24915   16.85614    9.21498
      H1    -9.80775   16.07089    9.05298
       H   -15.62930   13.40664    3.81914
       O   -16.16396   13.47617    4.59645
      H1   -17.06811   13.70604    4.20359
       H   -10.87724   14.04336    9.68314
       O   -10.31425   14.29412    8.93003
      H1   -10.87705   13.98158    8.23015
       H    -8.78334   11.79037   11.76715
       O    -9.35102   12.36041   12.35003
      H1   -10.02815   11.75887   12.71941
       H   -11.11622    3.00956    7.57230
       O   -10.32961    3.46000    7.77583
      H1    -9.97615    3.61668    6.83049
       H   -15.18867    9.43665   13.85736
       O   -15.94025    8.96804   14.34647
      H1   -16.71567    9.40832   13.94982
       H   -11.54750    9.95194    8.28078
       O   -10.62528    9.91155    8.52588
      H1   -10.21495    9.42676    7.77823
       H   -11.16471   10.41831   14.85739
       O   -11.26128   10.60133   13.90640
      H1   -10.85633    9.83610   13.44940
       H    -8.91542   14.69712    3.59900
       O    -8.38379   14.14895    2.92740
      H1    -7.61126   13.92090    3.44887
       H    -7.89858    4.45147    5.49122
       O    -7.10738    4.45648    5.97114
      H1    -6.55148    4.89611    5.29860
       H   -15.98234    7.36851    4.82709
       O   -15.52395    7.29786    5.70207
      H1   -15.30880    8.21147    6.02268
       H    -6.20711   14.32429    9.11199
       O    -6.65966   14.06930    8.31040
      H1    -6.26420   14.79441    7.71836
       H   -10.44084    8.44381   11.47035
       O   -10.98830    9.20749   11.61949
      H1   -11.34091    9.43899   10.71879
       H    -6.85488   13.17452   13.89289
       O    -7.35446   12.41980   14.27590
      H1    -8.11601   12.20994   13.67496
       H   -10.71005    6.88330    3.23914
       O   -10.80210    6.63398    2.29374
      H1   -11.72617    6.23326    2.33434
       H   -19.25615   10.04197    9.62201
       O   -18.70320    9.81306   10.39347
      H1   -18.32547    9.05901    9.93110
       H   -11.00599   15.81003   11.34507
       O   -10.36390   16.39389   11.85098
      H1    -9.84057   16.85732   11.19521
       H    -8.71459   16.35109    7.53744
       O    -8.52408   15.68296    6.84497
      H1    -8.26083   14.95937    7.43764
       H    -8.04834    8.63899    3.68031
       O    -9.00655    8.77985    3.57434
      H1    -9.07999    9.67832    3.18693
       H    -9.03138    6.40817   12.15833
       O    -8.61488    5.97971   11.37374
      H1    -9.00543    5.11977   11.46435
       H    -6.21556    9.16651    5.32769
       O    -6.21986    8.97296    4.34511
      H1    -6.30424    9.87619    3.97362
       H    -7.65770   11.00803    9.99046
       O    -7.38100   10.77182   10.90446
      H1    -6.66674   11.40361   11.10939
       H   -11.75963    6.69882    9.16618
       O   -12.74936    6.75378    9.09011
      H1   -13.10983    5.95714    8.83870
       H   -10.73626   13.14877   11.59593
       O   -11.57817   13.27335   11.12690
      H1   -11.82532   12.41654   10.69727
       H    -5.57400   11.22325    7.65424
       O    -4.99040   11.95614    7.89350
      H1    -5.57805   12.72788    8.06778
       H    -5.82958    9.60974   10.83868
       O    -5.15643    9.01512   11.14678
      H1    -4.81393    9.44486   11.96667
       H   -10.01813   12.33923    3.14330
       O   -10.02536   11.33484    3.02550
      H1   -10.88938   11.31047    2.62610
       H    -6.64303   12.88385    5.26894
       O    -6.99587   12.02668    4.78881
      H1    -7.98416   11.97275    5.09086
       H   -13.44970   15.84390   10.46475
       O   -12.82793   16.45132   10.09175
      H1   -12.71370   16.93357   10.90997
       H    -7.36735    6.31582    6.95271
       O    -7.66697    7.04761    7.53439
      H1    -8.25033    6.61914    8.15929
       H   -12.62784   11.79090    6.49280
       O   -12.70886   10.79356    6.56429
      H1   -12.75824   10.53178    5.60765
       H   -16.31264    6.36366    6.94287
       O   -16.47789    5.64327    7.66415
      H1   -15.56812    5.51234    7.96658
       H   -16.15456   12.66607   12.79590
       O   -16.07605   12.71908   13.75886
      H1   -17.00049   12.66024   14.03085
       H   -11.85979    9.76470    3.09942
       O   -12.10828    9.39876    3.95977
      H1   -11.29223    9.00014    4.28296
       H    -9.17155   12.37856    7.09183
       O    -9.46484   12.30768    6.14802
      H1   -10.00750   11.54147    6.18077
       H    -9.60231   15.90484    5.52691
       O    -9.75682   16.19574    4.58002
      H1   -10.69388   16.00479    4.49563
       H   -10.03589    3.52953    4.15128
       O    -9.64861    3.90294    4.94572
      H1    -9.98958    4.76673    5.10267
       H   -10.76274    6.88103    6.12008
       O   -10.78132    6.37498    5.30993
      H1   -11.73112    6.22553    5.27614
       H   -13.88603    4.36207    7.45455
       O   -14.21280    4.45238    8.37622
      H1   -13.87162    3.63510    8.76794
       H   -16.59032   13.29312   10.91053
       O   -15.70178   12.82150   10.85918
      H1   -14.99577   13.42387   11.12737
       H    -5.93576    7.18332   11.84369
       O    -6.05270    6.27990   12.20907
      H1    -6.96420    6.13956   11.90192
       H   -14.31569    6.12146    5.74243
       O   -13.51900    5.55915    5.61568
      H1   -13.73851    5.21159    4.71055
       H   -14.06417   13.32659    2.05372
       O   -14.09715   12.64725    2.73611
      H1   -13.37249   12.08814    2.38151
       H    -8.98354    8.89409    5.39230
       O    -9.04575    8.82671    6.35911
      H1    -8.48696    8.05171    6.55792
       H   -13.78433   10.62521   11.52675
       O   -13.69075   10.92195   10.58871
      H1   -14.38485   11.55794   10.53382
       H   -12.61746   14.25202    6.33396
       O   -12.13028   13.50603    6.74035
      H1   -11.25830   13.41971    6.23558
       H   -14.43050    9.48364    9.85152
       O   -14.72256    8.61644    9.50260
      H1   -13.87995    8.10968    9.41096
       H   -13.16141   13.82817   12.02827
       O   -13.85185   14.46108   11.94786
      H1   -13.89523   14.71397   12.85300
       H   -15.99226   11.54778    4.18238
       O   -16.28343   10.58377    4.14402
      H1   -15.43328   10.17058    4.42948

