180
frame 2 | Written by MDAnalysis XYZWriter (release 2.4.3)
       H    -4.99254   -8.57245    5.65829
       O    -5.71395   -7.97095    5.34015
      H1    -6.50881   -8.37992    5.65714
       H    -5.73883  -17.57945   11.24295
       O    -5.75934  -16.88867   10.61775
      H1    -5.78536  -17.23177    9.73678
       H    -6.73627   -8.81673    8.65628
       O    -7.63262   -8.82721    9.10969
      H1    -8.12242   -9.55870    8.69750
       H    -4.46680  -15.60968   15.02750
       O    -4.35154  -16.28132   14.38311
      H1    -4.49047  -15.90762   13.51311
       H     0.22578  -12.65105    5.28582
       O    -0.06074  -11.79044    5.54197
      H1     0.73829  -11.32872    5.87549
       H     0.66999  -12.26809   11.58412
       O     0.29534  -12.89874   10.93764
      H1     0.13761  -12.39508   10.11907
       H    -5.98260  -16.45297    6.39877
       O    -5.64440  -16.07157    5.55673
      H1    -6.44325  -15.61953    5.21503
       H    -9.02315  -16.36757    8.32588
       O    -9.40950  -16.84327    7.53575
      H1    -9.26402  -17.81502    7.59489
       H    -9.66821  -17.24130    2.86580
       O    -8.73076  -17.56838    2.93114
      H1    -8.54925  -18.05714    3.78325
       H    -7.01959  -12.09379    5.61271
       O    -7.00234  -11.62028    4.77111
      H1    -7.70588  -11.95202    4.19870
       H    -9.91578  -11.04709    9.57837
       O    -9.43043  -11.30291    8.75213
      H1   -10.10431  -11.13079    8.04961
       H    -8.29485  -12.16852   10.07778
       O    -8.10743  -12.38703   11.01377
      H1    -7.67052  -11.54126   11.35828
       H    -8.32780  -17.79974   13.88723
       O    -7.63566  -17.29323   13.45833
      H1    -7.93705  -17.35055   12.57161
       H    -8.21007  -13.70103   12.49662
       O    -7.63528  -14.22620   13.07034
      H1    -7.94372  -15.13874   12.97340
       H    -9.26858  -13.14843    2.87750
       O    -8.89091  -12.26813    2.94895
      H1    -8.37857  -12.30561    2.11539
       H   -11.17921  -14.48897    9.60284
       O   -10.92416  -15.10194   10.29861
      H1   -11.14291  -15.97534    9.98921
       H    -0.89470   -9.93874   11.18800
       O    -0.48566   -9.08184   11.00874
      H1     0.40360   -9.40234   10.74669
       H    -3.80136  -10.16881    6.52516
       O    -3.57702   -9.86796    5.62972
      H1    -3.57585  -10.66499    5.09821
       H    -0.05781  -14.22919    4.26660
       O     0.60543  -14.27692    4.94572
      H1     1.50555  -14.31065    4.62385
       H    -2.54535   -6.26164    8.47109
       O    -2.73915   -7.10291    8.84039
      H1    -2.27644   -7.74374    8.22703
       H    -3.44324  -10.60299   11.81041
       O    -2.74279  -11.09734   11.33846
      H1    -3.28818  -11.64726   10.69132
       H    -3.99227  -16.47100    5.55986
       O    -3.02950  -16.31861    5.51847
      H1    -2.64255  -17.14798    5.09542
       H    -2.52559  -12.14889   12.69178
       O    -2.47622  -12.92495   13.28992
      H1    -3.34399  -13.30256   13.25582
       H    -4.35826  -15.89608    9.95618
       O    -3.84705  -15.02274    9.99023
      H1    -2.87307  -15.17392   10.02929
       H    -3.85092   -8.95195   13.73784
       O    -3.86797   -9.27426   12.86664
      H1    -3.45441   -8.50329   12.40771
       H   -11.37010  -13.01847    6.69122
       O   -10.96564  -13.09623    5.75549
      H1   -10.23436  -13.70984    5.83664
       H     0.27528  -18.30142    7.98063
       O     0.15069  -17.62998    8.62769
      H1     1.02261  -17.39728    8.93642
       H    -4.75821  -14.29835   11.54177
       O    -4.92980  -14.00412   12.45770
      H1    -5.93749  -14.16115   12.48821
       H    -7.34659  -16.33861    2.64700
       O    -6.50547  -15.88866    2.39106
      H1    -6.52975  -15.87753    1.45018
       H    -4.91401  -11.27461    0.60162
       O    -4.75172  -11.11437    1.53905
      H1    -4.97410  -11.91126    2.05497
       H   -10.81018  -11.53011    6.04402
       O   -10.75824  -10.53579    6.12407
      H1    -9.84068  -10.37789    6.08616
       H    -7.62711  -18.75160   10.82526
       O    -8.44320  -18.25316   10.53695
      H1    -7.99525  -17.56486   10.02322
       H    -2.86006  -18.10459    3.45196
       O    -2.42597  -18.65790    4.15478
      H1    -1.48115  -18.62237    3.98637
       H    -6.73510  -18.48674    7.49707
       O    -6.07869  -17.91934    7.87641
      H1    -5.24344  -18.50819    7.81404
       H    -7.72809   -9.88791    5.14520
       O    -8.17826   -9.15439    5.49138
      H1    -8.24671   -8.45991    4.88223
       H    -3.31477  -19.22551    8.89401
       O    -3.42099  -18.27167    8.85219
      H1    -2.54757  -17.94320    8.51970
       H     0.81380  -11.16215    8.45248
       O    -0.08178  -11.35315    8.54029
      H1    -0.38397  -11.70006    7.67058
       H    -6.22837  -10.55728   13.13001
       O    -6.42344  -10.64468   12.19589
      H1    -6.59629   -9.74256   11.86412
       H    -1.92892   -9.46015    6.82558
       O    -1.31933   -8.88532    7.24413
      H1    -0.72829   -9.38026    7.80724
       H    -3.01346  -14.55945    5.39119
       O    -3.12557  -13.62340    5.28429
      H1    -3.79823  -13.57588    4.59013
       H    -5.83631  -12.43146    3.89360
       O    -5.18923  -13.06785    3.42642
      H1    -5.63489  -13.92135    3.25098
       H    -9.02191  -16.10072    5.85746
       O    -8.69809  -15.47953    5.18933
      H1    -8.23279  -14.78885    5.75586
       H    -7.68053   -8.21873   10.62384
       O    -7.38939   -7.86304   11.48876
      H1    -8.23341   -7.38371   11.62864
       H    -1.30984  -10.41423    3.02500
       O    -2.12406  -10.93476    3.10589
      H1    -2.64670  -10.52694    2.41669
       H    -0.87390  -13.85049   13.15614
       O    -0.33907  -14.65041   13.25170
      H1    -0.51390  -15.23240   12.53065
       H    -1.97178  -15.51835    0.95399
       O    -1.91213  -15.94553    1.79478
      H1    -1.82040  -15.14705    2.35318
       H    -1.14478  -19.00716   11.33277
       O    -0.24970  -19.08530   10.97599
      H1    -0.20251  -18.41010   10.21816
       H    -4.27488   -9.11428    8.91221
       O    -4.93265   -9.58512    8.40621
      H1    -5.09987  -10.48692    8.81146
       H     0.49943  -16.56384    6.85462
       O     0.72894  -16.70197    5.94497
      H1     0.76454  -15.83024    5.55144
       H    -3.50567  -16.69089    2.26783
       O    -4.16968  -17.34313    2.57174
      H1    -5.05128  -16.87074    2.48039
       H    -0.15689  -10.24178    4.17838
       O     0.11504   -9.67017    3.40275
      H1    -0.31070   -8.81541    3.56716
       H    -9.23420  -14.91080    9.86566
       O    -8.33728  -15.19170    9.55608
      H1    -7.75705  -15.08581   10.27791
       H    -1.50817  -12.81862    3.00351
       O    -1.31283  -13.68592    3.30531
      H1    -1.82022  -13.60473    4.14269
       H    -4.36085  -14.04177    8.58336
       O    -4.79194  -13.53378    7.87648
      H1    -4.14835  -13.56299    7.14800
       H    -7.97131  -14.01321    8.08554
       O    -7.46056  -13.77588    7.27310
      H1    -6.55636  -13.79873    7.53326
       H    -5.19029   -9.62876    2.30217
       O    -5.19664   -8.74470    2.68375
      H1    -5.53234   -8.73336    3.56600
       H    -8.97579   -7.87606    8.27303
       O    -9.83894   -7.51143    8.00506
      H1    -9.77284   -7.05637    7.12383
       H    -5.70335  -12.15449   10.66340
       O    -5.14968  -11.92439    9.93044
      H1    -5.31777  -12.58177    9.29503
       H     1.74588  -13.42368   10.28963
       O     2.58412  -13.85761    9.92172
      H1     2.98777  -13.37221    9.16427
       H    -0.01572  -15.91049   10.47069
       O    -0.82451  -15.53950   10.82672
      H1    -0.78186  -14.58858   10.83918

