180
frame 1 | Written by MDAnalysis XYZWriter (release 2.4.3)
       H   -12.71404    6.97439   14.83104
       O   -12.09603    6.86597   15.59432
      H1   -11.82877    7.75254   15.83917
       H    -7.49819    1.36143    8.14860
       O    -7.43742    1.44482    9.11451
      H1    -8.29077    1.86391    9.40137
       H    -5.31940    5.02210   16.68528
       O    -5.25505    5.38606   17.62319
      H1    -4.37154    5.15602   17.89411
       H    -9.34156    6.79363   13.86788
       O    -9.39164    7.73488   13.54046
      H1    -9.29787    8.11198   14.43850
       H   -15.35275    7.24224   10.50411
       O   -15.66437    6.52321   11.06521
      H1   -16.60236    6.74669   11.26011
       H   -10.98007   -2.86353   16.18008
       O   -11.28475   -1.96488   16.38501
      H1   -10.54792   -1.35498   16.40068
       H   -17.72356    3.48008   16.52321
       O   -17.05232    2.80786   16.68600
      H1   -16.26110    3.38204   16.58962
       H   -13.16666    8.96506   12.74753
       O   -13.64214    9.69231   13.20617
      H1   -12.88229   10.03883   13.69408
       H   -10.24427    4.40388   14.38683
       O   -10.33191    5.23850   13.91253
      H1   -10.87862    5.80293   14.49050
       H    -9.79440    4.72309   17.95446
       O   -10.82273    4.79433   18.12852
      H1   -10.93616    4.48519   19.04336
       H   -10.08735    2.22202   16.19625
       O   -10.57283    3.07511   15.99023
      H1   -10.61677    3.56029   16.83287
       H   -14.83727    7.73673   13.74495
       O   -14.27449    6.94035   13.48478
      H1   -14.66005    6.69689   12.59256
       H   -14.20457    3.23845   16.39743
       O   -14.84075    3.95224   16.18252
      H1   -14.35510    4.65519   16.64186
       H    -4.06697    3.05271   13.29953
       O    -4.04694    2.10387   13.60514
      H1    -3.11081    1.90125   13.33492
       H    -5.53932    3.56202   10.82718
       O    -5.32759    3.37844    9.90350
      H1    -6.06285    2.96245    9.47895
       H    -9.97598    5.13384    8.87245
       O    -9.92661    6.05506    9.03331
      H1    -9.51205    6.03039    9.93802
       H    -8.82261    2.40085   13.97435
       O    -8.01307    2.77989   13.57942
      H1    -7.40752    2.10905   14.00865
       H   -11.11622    3.00956    7.57230
       O   -10.32961    3.46000    7.77583
      H1    -9.97615    3.61668    6.83049
       H    -6.58027   10.91836   14.98061
       O    -6.40502   10.20746   15.61007
      H1    -6.23732    9.41907   15.05061
       H    -6.48062    6.98446   13.90682
       O    -6.49987    7.60581   14.68353
      H1    -7.27691    7.27625   15.17749
       H   -15.18867    9.43665   13.85736
       O   -15.94025    8.96804   14.34647
      H1   -16.71567    9.40832   13.94982
       H   -13.39432    8.58774   19.03020
       O   -12.43415    8.43147   18.83257
      H1   -12.40779    7.62273   18.29186
       H   -14.50345    1.76516   19.03111
       O   -13.89498    1.01916   18.92365
      H1   -14.51717    0.32012   19.28818
       H   -13.16365    1.24071    9.21968
       O   -13.14457    1.81712    8.48909
      H1   -12.67501    1.24901    7.82782
       H   -11.16471   10.41831   14.85739
       O   -11.26128   10.60133   13.90640
      H1   -10.85633    9.83610   13.44940
       H    -8.24013   10.02667   18.21432
       O    -8.33371    9.59442   17.36326
      H1    -7.71059   10.12142   16.84121
       H   -11.21670    1.48700   13.28472
       O   -10.74798    0.97246   13.91281
      H1   -10.40018    0.17165   13.44709
       H   -10.44084    8.44381   11.47035
       O   -10.98830    9.20749   11.61949
      H1   -11.34091    9.43899   10.71879
       H   -16.55180    1.78733   15.53471
       O   -16.49541    0.99276   14.93034
      H1   -15.69823    0.54256   15.26458
       H   -10.05589    7.62261   19.01372
       O    -9.84979    8.21538   19.75004
      H1    -8.87451    8.02372   19.80603
       H    -9.03138    6.40817   12.15833
       O    -8.61488    5.97971   11.37374
      H1    -9.00543    5.11977   11.46435
       H   -13.60603   -0.65689   14.72137
       O   -14.00769   -0.50215   15.58994
      H1   -13.53225    0.21246   15.98072
       H    -8.50531    2.87301   11.48269
       O    -9.12351    2.90282   10.75881
      H1    -9.99892    2.73467   11.17236
       H   -11.75963    6.69882    9.16618
       O   -12.74936    6.75378    9.09011
      H1   -13.10983    5.95714    8.83870
       H   -15.53018    4.22551   10.75490
       O   -15.84041    3.50354   11.34005
      H1   -16.12961    3.91361   12.15051
       H    -8.41203    0.47309   15.79935
       O    -9.24613    0.11998   16.13302
      H1    -9.81014    0.52328   15.46188
       H    -9.01711   -0.93843   10.38384
       O    -9.03493   -1.24495    9.48440
      H1    -8.18725   -0.88235    9.30951
       H    -7.36735    6.31582    6.95271
       O    -7.66697    7.04761    7.53439
      H1    -8.25033    6.61914    8.15929
       H   -15.33996    8.72649   19.73952
       O   -15.02192    8.73967   18.83557
      H1   -14.97317    7.78937   18.67224
       H    -5.32682    4.70714   14.40293
       O    -5.65333    4.10987   15.04071
      H1    -6.48799    3.85721   14.63731
       H    -5.59250    0.95170   12.57436
       O    -6.12012    0.37354   12.00072
      H1    -6.11554    0.88874   11.17120
       H    -7.91197    4.48923   18.93809
       O    -7.90247    4.45153   17.95348
      H1    -6.93386    4.55185   17.87280
       H   -15.41610    5.55140   13.62770
       O   -16.06375    4.96392   14.07411
      H1   -15.51491    4.53094   14.73210
       H    -3.42794    5.56365   13.52973
       O    -3.86818    4.89781   13.01651
      H1    -4.61895    5.35735   12.65872
       H    -4.23348    0.71518   15.48978
       O    -4.37648    1.06588   16.38269
      H1    -4.59902    1.96837   16.08051
       H   -13.39353    5.37655   18.31641
       O   -13.61923    6.00066   17.64718
      H1   -12.88910    6.09883   16.97546
       H    -8.81795   -0.28061   17.88182
       O    -8.52151   -0.26644   18.80136
      H1    -7.83495   -0.97664   18.87629
       H    -9.02172   -1.60593   12.63585
       O    -9.03676   -0.68555   12.46256
      H1    -8.10304   -0.39223   12.44804
       H    -7.39533    0.86274   18.28717
       O    -6.94155    1.78407   18.13860
      H1    -7.65757    2.33744   17.79785
       H   -13.88603    4.36207    7.45455
       O   -14.21280    4.45238    8.37622
      H1   -13.87162    3.63510    8.76794
       H   -13.95690    0.91625   11.85457
       O   -14.03439    1.42994   11.09457
      H1   -14.90680    1.79085   11.13528
       H    -5.93576    7.18332   11.84369
       O    -6.05270    6.27990   12.20907
      H1    -6.96420    6.13956   11.90192
       H   -12.45282    2.29235   11.40021
       O   -11.65890    2.65646   11.82481
      H1   -11.99274    3.46372   12.20679
       H   -10.22343    9.77117   16.83928
       O   -11.04328    9.46255   16.48284
      H1   -11.57698    9.44411   17.28748
       H    -6.32147    1.23009   16.04045
       O    -6.83837    1.10449   15.18474
      H1    -6.48133    0.24138   14.99088
       H    -3.34678    9.37643   16.38679
       O    -3.57915    8.56188   16.71163
      H1    -4.52961    8.57595   16.51268
       H   -13.24718   -1.63681   12.50543
       O   -13.56863   -0.99740   13.15206
      H1   -14.42792   -0.80633   12.77483
       H    -7.98666    6.18168   17.19469
       O    -8.57552    6.82879   16.72843
      H1    -8.28579    7.66896   17.12817
       H   -13.16179    1.72083   17.52911
       O   -13.04517    2.07007   16.62027
      H1   -12.07319    2.17734   16.50714
       H   -14.43050    9.48364    9.85152
       O   -14.72256    8.61644    9.50260
      H1   -13.87995    8.10968    9.41096

