180
frame 11 | Written by MDAnalysis XYZWriter (release 2.4.3)
       H    -2.79604   10.64507   -2.59246
       O    -2.94299   10.23455   -3.44001
      H1    -2.53182   10.95106   -3.94155
       H     5.24816    9.21789   -5.60204
       O     4.37760    9.11209   -5.23837
      H1     3.82221    8.87333   -6.02591
       H    -4.60110    7.62114    0.83756
       O    -3.99849    7.21810    0.18541
      H1    -3.52557    6.56351    0.77133
       H    -0.96727    4.42428   -4.49292
       O    -0.23053    3.74388   -4.58343
      H1     0.30652    4.04360   -3.81529
       H     0.35621   10.32384    0.92257
       O     1.17188    9.89239    1.30000
      H1     1.73205    9.87727    0.50836
       H    -0.35239    8.07821   -8.40678
       O    -0.84633    7.42960   -7.86396
      H1    -0.91248    7.86502   -6.99672
       H    -3.17834    4.96503   -3.48596
       O    -2.70789    4.99578   -4.32476
      H1    -3.22913    5.68477   -4.76235
       H    -2.83849    8.38497    6.77408
       O    -2.83750    8.31925    5.80712
      H1    -2.60713    7.40797    5.66698
       H    -5.03493    5.09165   -1.91992
       O    -4.36117    4.40398   -2.20933
      H1    -4.75032    4.30814   -3.12602
       H     0.92224    6.60836   -3.53594
       O     1.71631    6.46290   -4.06275
      H1     2.21762    5.80785   -3.51686
       H     3.89633    7.17398    3.02567
       O     3.47080    7.78542    3.67055
      H1     2.65892    8.12337    3.22885
       H    -3.08008   10.72959    1.16245
       O    -3.38327   11.24025    1.88566
      H1    -3.00135   10.74600    2.63799
       H     2.84119   11.64174   -1.39263
       O     2.21974   11.95520   -2.02171
      H1     1.90467   11.16650   -2.43708
       H     6.81632    6.87703   -0.02048
       O     6.60819    5.91941   -0.04339
      H1     5.65002    5.89881   -0.11828
       H     5.55599   10.28570   -1.04082
       O     5.61786    9.41867   -1.45697
      H1     5.68768    9.75662   -2.35081
       H    -6.48640    6.67746   -1.12894
       O    -5.83865    6.67780   -1.79713
      H1    -5.18370    7.08186   -1.25549
       H    -8.36527   11.38821    1.08043
       O    -7.49697   11.26303    0.63019
      H1    -6.96186   10.71457    1.28366
       H    -4.43804    8.62197    4.76041
       O    -5.37277    8.89431    4.71921
      H1    -5.58498    9.11896    5.65254
       H    -4.90651    9.92172    1.71549
       O    -5.30444    9.08025    1.43822
      H1    -5.27271    8.64552    2.28251
       H    -7.03757    9.99893   -2.07144
       O    -7.75938    9.62019   -1.50958
      H1    -7.74194   10.27509   -0.74454
       H    -3.13503   13.27275   -2.25537
       O    -2.69249   13.62117   -3.07146
      H1    -1.91475   14.13649   -2.63174
       H     4.68439   11.47320    0.52953
       O     4.03025   11.80097   -0.13439
      H1     3.77889   12.63604    0.32944
       H    -1.04199    7.77831   -0.90212
       O    -1.58161    8.24681   -0.24374
      H1    -2.44671    7.77570   -0.29523
       H     0.99375   12.74950   -0.71597
       O     0.15826   12.69410   -0.22743
      H1     0.32324   13.32856    0.51095
       H    -3.74325   12.37013   -0.23610
       O    -4.12116   13.10179   -0.68567
      H1    -4.05632   13.81572   -0.06992
       H    -1.54393    5.45539    1.46974
       O    -2.53297    5.46475    1.64977
      H1    -2.53841    5.87400    2.50881
       H    -0.15402   13.85446   -1.63898
       O    -0.23432   14.65092   -2.18112
      H1    -0.28099   14.28346   -3.11262
       H     2.71708   11.95287   -5.31756
       O     2.69068   11.42669   -6.14760
      H1     1.74360   11.43176   -6.32322
       H     0.26411   14.62637   -5.36286
       O     0.14257   13.94156   -4.70727
      H1    -0.58485   13.37467   -5.17261
       H     4.77682    7.26008   -3.82259
       O     4.81706    6.46883   -3.23954
      H1     5.78189    6.19463   -3.40858
       H    -7.37619    6.23836    2.48669
       O    -6.55886    6.59781    2.80637
      H1    -6.09519    5.82406    3.14861
       H    -7.00908   12.30644   -4.11276
       O    -6.12261   12.50203   -3.68094
      H1    -5.81439   11.61084   -3.93465
       H     0.65088    9.05462    2.84018
       O     0.55771    9.05478    3.81310
      H1     0.10997    8.22015    3.93036
       H     3.01100    3.18825    4.11072
       O     2.28591    3.44544    3.56076
      H1     2.31519    2.67076    3.03983
       H     4.02373    6.25051    1.00766
       O     4.03992    6.09536    1.93240
      H1     4.50476    5.26596    2.05808
       H    -2.14784    5.16640    4.78109
       O    -2.60028    5.92407    4.41959
      H1    -3.47244    5.75893    4.80948
       H     1.28285    1.54498    1.26670
       O     1.78104    1.29589    2.04655
      H1     1.15781    0.81253    2.65093
       H    -1.20808    7.51343   -3.74073
       O    -0.94757    6.85190   -3.08366
      H1    -1.47246    6.12084   -3.37367
       H     0.35630    5.11965    3.04084
       O     0.50252    5.86570    2.40334
      H1     1.37065    5.61642    2.11572
       H     0.48274    3.36805    4.16289
       O    -0.35138    3.63190    4.67958
      H1     0.08652    4.23537    5.28012
       H    -5.37310    2.83441   -1.96248
       O    -5.66463    1.93257   -1.81631
      H1    -5.76370    1.93006   -0.87867
       H     3.12981    3.84976   -2.99769
       O     2.44588    4.12287   -2.39259
      H1     2.15049    3.13879   -2.18420
       H    -4.39657    3.36837   -0.34919
       O    -4.45168    3.43903    0.59861
      H1    -3.94076    4.28646    0.66681
       H    -1.78753   10.04611   -0.58462
       O    -2.16164   10.95516   -0.64857
      H1    -1.34224   11.42501   -0.51456
       H    -4.83630    9.56474   -3.68481
       O    -5.81179    9.57644   -3.44812
      H1    -6.04666    8.85326   -4.10600
       H     1.86689    5.80910   -5.78845
       O     1.68360    5.59171   -6.71962
      H1     0.74273    5.88546   -6.81270
       H    -2.30264   12.87080   -4.61772
       O    -1.85554   12.43628   -5.38498
      H1    -2.44057   12.48364   -6.18651
       H    -2.98861    7.12373   -7.81908
       O    -3.78291    6.96530   -7.29878
      H1    -4.34578    7.63111   -7.75301
       H     4.55209    8.11265   -0.86163
       O     4.06198    7.27252   -0.70306
      H1     4.28683    6.81306   -1.51862
       H    -2.88934   12.85898    3.16433
       O    -2.50583   13.73534    3.32013
      H1    -1.58472   13.59117    2.99955
       H     0.10638    1.13987   -4.12906
       O    -0.51547    1.48917   -3.44517
      H1    -0.66831    2.40199   -3.71547
       H     0.95584    8.30272   -0.17713
       O     1.41097    8.12126   -1.01585
      H1     2.25862    7.82030   -0.71413
       H     3.57273    3.99575   -0.82411
       O     4.49016    4.26467   -0.59764
      H1     4.54302    3.83539    0.31056
       H     0.91266    1.54421   -2.35252
       O     1.53604    1.45968   -1.60016
      H1     2.36344    1.20810   -1.98263
       H     1.79071   10.08693    4.54277
       O     2.24606   10.65618    5.23264
      H1     1.49578   11.32508    5.24043
       H    -8.65716    7.21154   -3.22082
       O    -8.09598    6.56427   -3.70971
      H1    -7.26361    6.65050   -3.25110
       H     1.43506    8.83764   -3.07960
       O     1.73248    9.52024   -3.66088
      H1     2.61140    9.29324   -3.98709
       H     1.84173    7.46652   -6.98379
       O     2.20383    8.36669   -6.87298
      H1     1.49820    8.83735   -6.38703
       H    -6.90137    2.61256    2.08552
       O    -6.40347    3.28644    2.59970
      H1    -5.84106    3.64046    1.82681
       H    -0.18972    9.85433   -6.26882
       O    -0.52839    9.30119   -5.53354
      H1     0.03219    9.58648   -4.77610

