180
frame 5 | Written by MDAnalysis XYZWriter (release 2.4.3)
       H   -14.09055    0.71444   -9.73103
       O   -13.67613    1.53519   -9.34655
      H1   -13.68161    2.14543  -10.14254
       H   -10.93976    9.54761  -11.51201
       O   -11.22377    8.93044  -10.80574
      H1   -10.63046    9.23561  -10.05167
       H    -6.72072    2.52014   -5.36855
       O    -6.79252    3.47409   -5.31847
      H1    -6.50739    3.71661   -6.20060
       H   -13.07049    4.36351  -10.83741
       O   -13.64512    3.69965  -11.29676
      H1   -14.41812    4.29380  -11.52384
       H   -10.50958    7.40939  -11.46264
       O   -10.06572    6.52050  -11.36470
      H1   -10.16686    6.04914  -12.24210
       H   -12.54963    4.97839   -8.22965
       O   -13.37251    5.26039   -7.77442
      H1   -13.77912    4.41307   -7.50592
       H    -7.00497    0.66315   -8.08659
       O    -7.05149   -0.30095   -8.08116
      H1    -7.99931   -0.41810   -7.84235
       H   -14.23817    1.36385   -6.46434
       O   -14.21010    2.26953   -6.84660
      H1   -14.03775    1.97231   -7.77070
       H   -11.99364   -3.19891   -4.12828
       O   -12.09475   -3.59265   -4.99623
      H1   -11.96260   -4.51577   -4.83427
       H    -5.88575   -2.80683  -10.15596
       O    -6.64412   -2.73795   -9.55872
      H1    -6.58716   -1.80985   -9.31617
       H   -12.46253    2.01296   -2.57353
       O   -12.30737    1.14349   -2.18060
      H1   -11.86073    0.61508   -2.87229
       H    -5.72239    1.76587  -14.65567
       O    -6.62973    1.43437  -14.49508
      H1    -7.08592    1.80607  -15.29927
       H   -12.46878   -4.14425   -9.02375
       O   -12.17326   -3.27365   -9.34081
      H1   -12.18129   -2.77649   -8.53263
       H    -5.41824    3.93833   -2.23142
       O    -5.33115    3.30784   -2.99346
      H1    -5.94137    3.64452   -3.68728
       H    -9.48498   -3.85645  -10.98679
       O    -8.50204   -4.03392  -11.19521
      H1    -8.10658   -3.45916  -10.50898
       H   -13.05531    6.40922   -4.88901
       O   -12.57843    5.73234   -5.33054
      H1   -12.91642    5.71401   -6.22666
       H    -2.64797    4.31053  -10.48998
       O    -2.94301    3.41593  -10.75317
      H1    -3.35162    3.07033   -9.95657
       H    -7.38730    8.85551  -11.33118
       O    -7.13002    9.03058  -10.41440
      H1    -7.11220    8.19610   -9.97141
       H    -8.78589    8.83235   -7.13744
       O    -8.30578    8.56238   -6.34908
      H1    -8.83887    7.86352   -5.92786
       H   -14.63015    6.26488   -7.96793
       O   -15.51989    6.75899   -8.09550
      H1   -15.36402    7.46285   -8.79369
       H    -7.44626    7.53346   -7.52107
       O    -7.10423    7.21256   -8.36852
      H1    -6.37044    6.62963   -8.13272
       H   -14.45699   -0.79308   -5.23055
       O   -14.34843   -0.45527   -6.13708
      H1   -13.46260   -0.84012   -6.33700
       H   -11.63161   -3.63894  -10.99074
       O   -11.26380   -4.15884  -11.71575
      H1   -11.46334   -5.06230  -11.49166
       H    -8.15189    0.38467  -10.04237
       O    -8.65248    0.33153  -10.85031
      H1    -8.31260   -0.46366  -11.28483
       H    -8.22133   -2.51274  -12.44897
       O    -7.92822   -1.60620  -12.58299
      H1    -7.87821   -1.51608  -13.54627
       H   -16.14654   -1.39998   -9.97585
       O   -17.09394   -1.53585  -10.28474
      H1   -17.17346   -2.46841   -9.91394
       H    -7.04676    4.05893  -12.76629
       O    -7.35913    4.85070  -13.30097
      H1    -8.32487    4.78679  -13.31751
       H   -11.42131   -0.20751  -13.43304
       O   -12.26204    0.28916  -13.27831
      H1   -12.01990    1.22761  -13.02206
       H    -9.71403   -1.53949   -4.38513
       O    -8.96928   -1.27751   -4.94883
      H1    -8.40912   -0.73864   -4.37392
       H    -7.05549    0.25098   -2.41800
       O    -6.88254   -0.45880   -3.08300
      H1    -6.65382   -1.26870   -2.55181
       H   -14.15775   -1.26239  -10.94423
       O   -14.33203   -1.03279   -9.99493
      H1   -13.40731   -1.05646   -9.65602
       H   -12.38674    4.43754   -3.93453
       O   -12.02120    3.99069   -3.15914
      H1   -11.07501    4.15544   -3.27642
       H   -14.44678    7.20666  -12.91268
       O   -13.58936    6.75389  -12.78579
      H1   -13.45305    7.07930  -11.87472
       H   -15.58443    2.87397   -6.17854
       O   -16.30584    3.41725   -5.83817
      H1   -16.54844    3.10583   -4.94170
       H    -9.67075   -0.01437   -6.41450
       O   -10.02001    0.19323   -7.27346
      H1   -10.33065    1.06082   -7.00178
       H   -11.65011   -2.21789   -6.59257
       O   -12.05949   -1.47208   -7.02893
      H1   -11.25773   -0.95027   -7.12885
       H    -3.37276    0.80911   -6.90273
       O    -3.22193    1.30249   -6.08650
      H1    -4.15780    1.27192   -5.77851
       H    -4.78128    4.54458   -8.86558
       O    -5.58356    5.09971   -9.03351
      H1    -5.43618    5.40660   -9.94683
       H    -4.55066   -0.62773  -11.60541
       O    -4.36230    0.21305  -11.09867
      H1    -4.86800    0.93106  -11.43352
       H   -10.86342    6.48703   -5.24659
       O    -9.89737    6.55259   -4.96958
      H1    -9.89084    6.74570   -4.01271
       H    -8.81801    1.60750  -12.00525
       O    -8.77559    2.21726  -12.74904
      H1    -7.86846    1.95293  -13.10938
       H   -10.07976    2.64351   -8.50763
       O    -9.59877    2.70200   -9.35106
      H1    -9.88478    1.96918   -9.90229
       H   -10.86674    5.03936  -14.43149
       O   -10.31216    4.74771  -13.72524
      H1   -10.68510    3.87569  -13.51446
       H    -6.18507    5.76238  -12.12760
       O    -5.31920    5.90515  -11.74767
      H1    -5.16666    6.84439  -11.95931
       H    -9.40156   -0.58021  -13.18805
       O    -9.73957   -0.01405  -13.87622
      H1    -9.50234    0.93150  -13.55082
       H   -10.68765    4.19832   -9.63661
       O   -11.40960    4.86357   -9.81524
      H1   -10.89613    5.59914  -10.14864
       H   -10.86596    2.64250   -6.03500
       O   -11.10902    2.61387   -6.97579
      H1   -12.10261    2.58873   -6.89148
       H    -9.92173   10.51921   -9.14658
       O    -9.49776    9.72548   -8.82366
      H1    -8.80764    9.43117   -9.42439
       H    -6.57705    3.49701   -8.84866
       O    -6.91692    2.58340   -8.76126
      H1    -7.89688    2.74728   -8.82719
       H   -13.97674    0.56614  -13.29497
       O   -14.92729    0.64820  -13.51134
      H1   -15.25726    1.36172  -12.90184
       H    -2.49379    4.17719   -7.53327
       O    -3.40967    4.44982   -7.28098
      H1    -3.23504    5.43831   -7.39049
       H    -8.46953   -2.83668   -5.77017
       O    -7.92655   -3.53657   -6.07111
      H1    -8.31375   -3.84784   -6.84749
       H   -13.07027    2.85076  -14.18158
       O   -12.40787    2.93375  -13.51024
      H1   -12.87854    3.16559  -12.67260
       H    -2.74773    0.25010   -8.65529
       O    -3.68378    0.07864   -8.41334
      H1    -4.12324    0.21027   -9.30935
       H   -11.05622   -1.22410   -1.96492
       O   -11.42685   -1.40692   -2.86118
      H1   -12.28100   -1.78573   -2.58639
       H   -11.06247    6.49695   -2.01747
       O   -10.15362    6.79153   -2.32863
      H1    -9.92259    7.24319   -1.46511
       H    -4.96008    3.22387  -11.48682
       O    -5.73800    2.69637  -11.67560
      H1    -6.05878    2.43446  -10.83946
       H    -6.46301    0.14864   -6.03813
       O    -6.07568    0.77803   -5.37689
      H1    -5.95563    0.23860   -4.56769
       H    -8.51203    3.67988   -5.07723
       O    -9.42505    3.75706   -4.80451
      H1    -9.52011    4.72438   -4.71630
       H    -4.97480   -2.93476   -7.65394
       O    -5.16449   -2.85288   -6.70629
      H1    -6.15884   -2.90469   -6.70059

