180
frame 0 | Written by MDAnalysis XYZWriter (release 2.4.3)
       H     8.30774   10.06489    2.27736
       O     7.88819   10.03873    3.17162
      H1     8.69219   10.15711    3.72002
       H     5.68154    0.37335   -4.56597
       O     4.90537    0.45351   -3.95370
      H1     4.59752   -0.50021   -3.94951
       H     3.01973    0.77294   -5.67479
       O     3.45655    0.16174   -6.28437
      H1     4.33006   -0.01721   -5.85680
       H     5.72536    3.72257   -4.58888
       O     6.19348    3.83522   -3.77187
      H1     6.01518    4.77642   -3.53138
       H     6.37811    8.72617   -4.05030
       O     6.00343    8.08399   -4.65999
      H1     5.08149    8.28204   -4.52242
       H    -2.15385    4.31821   -3.54480
       O    -1.34337    3.77073   -3.50879
      H1    -0.89514    4.06904   -2.70066
       H    -0.69496   11.22367   -1.04862
       O    -0.86903   10.26424   -1.06387
      H1     0.09951    9.90854   -1.08824
       H     6.06614    1.13472    2.02690
       O     7.00986    0.94264    2.08500
      H1     7.04328    0.18943    2.73053
       H    12.66917    6.83413   -4.65964
       O    12.21371    7.62525   -4.84495
      H1    12.78562    8.36080   -4.62666
       H    -0.39771    6.62782   -1.36548
       O     0.34469    6.90276   -1.92470
      H1     1.02315    6.26523   -1.59497
       H    13.81905    5.64193   -2.44765
       O    13.50672    4.83875   -2.84988
      H1    12.52834    4.88819   -2.64282
       H     7.77060    5.16711   -4.02168
       O     8.65250    5.58078   -3.76603
      H1     9.16091    5.20633   -4.49908
       H    10.14443    4.80782   -6.87382
       O    10.11522    4.45001   -5.94724
      H1    10.23571    3.48403   -6.04884
       H    10.49721    7.80423   -3.97054
       O     9.74052    8.16792   -3.51683
      H1     9.18409    7.33821   -3.59095
       H     4.31460   11.72396   -1.14290
       O     3.48641   11.83967   -1.63650
      H1     2.92726   11.12456   -1.38657
       H     7.41512    5.97623    1.46856
       O     7.40893    5.37389    2.24286
      H1     6.48792    5.15077    2.35460
       H     5.55063   11.34752    0.63017
       O     5.86752   11.28921   -0.30455
      H1     6.24906   12.20459   -0.42765
       H     5.90882    7.61288   -6.60474
       O     5.84025    7.48411   -7.55884
      H1     5.96073    6.49181   -7.59936
       H     4.85072    9.80239    2.07200
       O     4.38211   10.68585    1.96312
      H1     3.41082   10.47046    2.22905
       H     6.16832    1.02883   -1.10657
       O     5.38252    1.32898   -1.47227
      H1     5.50244    1.24757   -2.47094
       H     5.93263    7.11800   -2.80873
       O     5.91813    6.20999   -2.50509
      H1     6.60753    6.14483   -1.79523
       H     7.85528    3.71690   -0.67076
       O     8.76675    4.03706   -0.80517
      H1     9.07618    3.73234    0.04283
       H    10.03545    4.07954   -2.03517
       O    10.76949    4.36927   -2.57410
      H1    10.26379    4.93410   -3.14202
       H     4.66604   10.47213   -6.20769
       O     5.50966   10.85221   -6.09199
      H1     5.96518   10.20043   -5.58517
       H     8.47649    7.39628   -0.46868
       O     7.85324    6.66432   -0.38543
      H1     8.44836    5.90803   -0.55711
       H     7.95882    8.44958    3.59434
       O     8.24153    7.53417    3.87189
      H1     7.73371    6.97546    3.20559
       H     4.66686   12.14660   -3.19199
       O     5.40705   12.38976   -3.68872
      H1     5.17269   12.02873   -4.56683
       H     3.54022    4.30467    2.36540
       O     4.14461    4.73557    1.71938
      H1     4.31887    4.08151    1.05364
       H    11.10240    2.18568   -4.99078
       O    10.36594    1.63581   -5.35514
      H1    10.70820    1.15246   -6.07922
       H     2.00163    2.74964    3.65973
       O     1.86881    3.58396    3.16406
      H1     1.55271    3.26675    2.32092
       H     3.06839    7.10131    1.38836
       O     2.17018    6.97895    1.71519
      H1     2.24512    6.19818    2.26623
       H     6.37508    4.32853   -8.54015
       O     6.76012    4.91122   -7.83233
      H1     6.63395    4.33190   -7.05896
       H    10.55298    7.06361    2.39620
       O    10.59760    7.98893    2.76731
      H1     9.68040    7.93363    3.04664
       H     4.04044    1.79812   -7.39228
       O     4.37313    2.63808   -7.69531
      H1     4.25686    3.19465   -6.88962
       H     3.32410    5.11696   -0.34700
       O     2.34770    5.19644   -0.48234
      H1     2.13552    5.72671    0.24800
       H     4.12590    8.62298   -7.65711
       O     3.52920    9.30060   -7.89140
      H1     4.01468    9.74533   -8.62190
       H     8.92594    5.50054   -8.30900
       O     9.65291    6.01079   -8.56467
      H1     9.25144    6.26653   -9.46232
       H     1.33418    3.86796    0.32603
       O     0.61319    3.55059    0.87393
      H1     0.25721    2.97328    0.22969
       H    10.27412    9.40023   -2.14241
       O    10.61362    9.44979   -1.20304
      H1    10.82181   10.45214   -1.09212
       H    11.33257    4.87812    2.35861
       O    11.23734    5.54941    1.64361
      H1    11.71858    5.00370    0.98728
       H     5.31961    8.74034    4.18494
       O     5.30484    8.36920    3.25035
      H1     4.63699    7.68498    3.47612
       H     0.57024    4.42504   -7.07321
       O     0.16091    4.01284   -6.33908
      H1     0.37756    4.48845   -5.51473
       H     8.43583   10.92771   -4.45519
       O     7.92003   10.13759   -4.42597
      H1     8.58470    9.45332   -4.42497
       H     6.42039    9.91176   -1.75323
       O     6.36580    8.99079   -2.05171
      H1     7.09913    8.58364   -1.52006
       H     0.55946    7.15312   -4.54396
       O     1.04196    6.65389   -5.14944
      H1     0.75109    6.95830   -6.00592
       H     7.06872    8.62632   -8.04059
       O     7.69263    9.10930   -8.61781
      H1     8.43861    9.50845   -8.15868
       H    12.55972    2.54550   -3.16653
       O    12.35345    1.85519   -2.55721
      H1    11.84550    2.34288   -1.87090
       H     8.85221    9.90232   -0.23761
       O     8.08034    9.49459    0.21482
      H1     7.31287   10.05736    0.16559
       H     4.15208    9.52620    0.64697
       O     4.28522    8.81735   -0.04897
      H1     4.74059    9.21323   -0.80088
       H    12.11789    9.19049   -0.74091
       O    13.08531    9.27279   -0.58506
      H1    13.42793    8.49261   -1.04363
       H     5.52439    4.56918   -1.26485
       O     5.26603    3.82036   -0.69228
      H1     5.36945    2.96392   -1.23960
       H     3.25149   -0.93455   -0.05850
       O     3.21266   -0.54690   -0.97709
      H1     4.04268    0.05476   -0.90290
       H     1.18598    8.42381   -1.77635
       O     1.69104    9.23167   -1.40681
      H1     2.46433    8.84003   -0.92104
       H     8.59393    2.03763   -3.12181
       O     8.36509    1.22279   -3.57145
      H1     9.00521    1.36737   -4.33414
       H     7.88853    0.85006    0.42276
       O     7.96471    0.88493   -0.55921
      H1     8.84962    0.52243   -0.52699
       H     0.19695    1.55081   -2.12216
       O     0.32578    1.68496   -1.14340
      H1     1.14882    1.31230   -0.91002
       H     8.71184    5.86440    4.79996
       O     8.50198    4.91798    4.64083
      H1     8.33067    4.84735    3.73580
       H     0.70438   10.78802   -4.48284
       O     1.10602   11.07046   -3.61666
      H1     1.75418   10.35468   -3.54545
       H     2.81048    8.56967   -5.26468
       O     3.08407    8.86515   -4.39223
      H1     2.51492    8.29115   -3.87942
       H     3.54866    4.30150   -4.98189
       O     3.90717    4.52223   -5.87239
      H1     3.32274    5.21699   -6.16868

