180
frame 5 | Written by MDAnalysis XYZWriter (release 2.4.3)
       H    -9.67665   11.55562  -11.10981
       O    -9.25617   10.89060  -11.71190
      H1    -8.31031   10.97816  -11.56278
       H    -4.16845    9.56264   -3.96504
       O    -4.58439    8.72088   -3.80879
      H1    -4.86309    8.62109   -4.74345
       H   -10.93976    9.54761  -11.51201
       O   -11.22377    8.93044  -10.80574
      H1   -10.63046    9.23561  -10.05167
       H   -13.07049    4.36351  -10.83741
       O   -13.64512    3.69965  -11.29676
      H1   -14.41812    4.29380  -11.52384
       H   -10.50958    7.40939  -11.46264
       O   -10.06572    6.52050  -11.36470
      H1   -10.16686    6.04914  -12.24210
       H   -12.54963    4.97839   -8.22965
       O   -13.37251    5.26039   -7.77442
      H1   -13.77912    4.41307   -7.50592
       H   -11.18427    9.33244  -14.13898
       O   -11.97902    9.27609  -13.58843
      H1   -11.97513    8.33369  -13.25528
       H    -8.82402   13.53605  -14.51023
       O    -9.34159   13.12938  -15.21605
      H1   -10.22625   12.90998  -14.81340
       H    -5.58389   12.13163   -6.70388
       O    -5.14124   13.00964   -6.66853
      H1    -5.74946   13.55113   -6.16734
       H   -14.98974   14.08494  -14.02984
       O   -14.29574   14.09905  -13.40054
      H1   -14.67168   13.51309  -12.67507
       H   -12.61217   12.78846  -12.72987
       O   -12.60631   12.07487  -12.08517
      H1   -12.01494   11.42284  -12.52641
       H   -13.05531    6.40922   -4.88901
       O   -12.57843    5.73234   -5.33054
      H1   -12.91642    5.71401   -6.22666
       H   -14.43940   10.89498   -7.65325
       O   -14.84303   11.09444   -6.79751
      H1   -15.78022   10.94868   -7.05513
       H   -10.13316    7.29063  -15.22067
       O    -9.93334    8.22515  -15.35747
      H1   -10.38918    8.35588  -16.21705
       H    -7.38730    8.85551  -11.33118
       O    -7.13002    9.03058  -10.41440
      H1    -7.11220    8.19610   -9.97141
       H    -8.78589    8.83235   -7.13744
       O    -8.30578    8.56238   -6.34908
      H1    -8.83887    7.86352   -5.92786
       H   -14.63015    6.26488   -7.96793
       O   -15.51989    6.75899   -8.09550
      H1   -15.36402    7.46285   -8.79369
       H    -7.44626    7.53346   -7.52107
       O    -7.10423    7.21256   -8.36852
      H1    -6.37044    6.62963   -8.13272
       H    -6.33428   10.67940  -10.50380
       O    -5.76642   11.47645  -10.54759
      H1    -5.94943   11.71932  -11.49523
       H   -11.64220   12.33340   -3.77132
       O   -11.34860   12.38913   -2.83341
      H1   -11.17940   11.43546   -2.70991
       H   -11.59773    9.97455   -7.27321
       O   -12.12364    9.73723   -6.50865
      H1   -11.42747    9.87873   -5.85315
       H    -8.07801   10.65394  -15.41195
       O    -8.07593   10.98261  -16.35064
      H1    -8.69389   11.73978  -16.26806
       H    -7.04676    4.05893  -12.76629
       O    -7.35913    4.85070  -13.30097
      H1    -8.32487    4.78679  -13.31751
       H    -9.75840   15.82028   -6.60122
       O    -9.08813   15.41368   -6.01062
      H1    -9.67603   15.31452   -5.21426
       H   -10.11353   13.37555   -9.94650
       O   -10.20368   12.52706   -9.42765
      H1    -9.51027   12.77100   -8.80737
       H   -10.42112   15.09607  -11.17822
       O    -9.78892   14.34633  -11.17324
      H1    -8.97657   14.70454  -10.81613
       H   -11.38132   15.69310   -7.85494
       O   -11.25842   16.65061   -7.69514
      H1   -12.09274   16.88844   -7.24014
       H    -8.65623   11.82228   -4.05824
       O    -7.79981   12.25382   -3.90383
      H1    -7.30832   11.50305   -3.50672
       H    -8.84318   14.40761  -12.70577
       O    -8.00740   14.43131  -13.25435
      H1    -8.10900   15.27458  -13.68042
       H    -4.55102    8.57286  -13.33703
       O    -4.46991    8.29126  -12.45017
      H1    -4.77188    9.09086  -11.92051
       H    -5.40446   13.24226   -9.86483
       O    -5.36738   14.05165   -9.33613
      H1    -5.32348   13.76578   -8.43571
       H   -14.44678    7.20666  -12.91268
       O   -13.58936    6.75389  -12.78579
      H1   -13.45305    7.07930  -11.87472
       H    -7.53336   14.79814   -5.35985
       O    -6.63078   14.59951   -5.12148
      H1    -6.55846   14.27890   -4.22416
       H    -6.59763   14.77891  -10.08979
       O    -7.32888   15.20864  -10.55796
      H1    -7.05721   14.98421  -11.46677
       H   -10.61827   14.31870   -3.47186
       O   -10.22159   15.19068   -3.50781
      H1   -10.86265   15.80036   -3.10284
       H   -12.85719   12.48202  -14.88662
       O   -12.05366   13.04959  -14.78119
      H1   -12.58759   13.86158  -14.47056
       H   -13.55693    9.89152  -15.14100
       O   -13.63508   10.74061  -15.59507
      H1   -12.96610   10.72196  -16.28901
       H    -4.78128    4.54458   -8.86558
       O    -5.58356    5.09971   -9.03351
      H1    -5.43618    5.40660   -9.94683
       H   -10.86342    6.48703   -5.24659
       O    -9.89737    6.55259   -4.96958
      H1    -9.89084    6.74570   -4.01271
       H   -10.42287   16.96894   -9.74002
       O   -10.66905   17.02167  -10.65424
      H1   -11.61360   17.06032  -10.49480
       H    -7.26240   13.94016   -8.14454
       O    -8.05435   13.39013   -7.96587
      H1    -8.43334   13.86996   -7.22066
       H    -3.86649   10.51441   -8.19513
       O    -3.91626    9.70164   -8.74977
      H1    -4.80412    9.44459   -8.64150
       H    -6.18507    5.76238  -12.12760
       O    -5.31920    5.90515  -11.74767
      H1    -5.16666    6.84439  -11.95931
       H    -9.40998    9.68628   -5.14757
       O    -9.96179   10.28152   -4.63518
      H1   -10.18648    9.75296   -3.85861
       H   -10.68765    4.19832   -9.63661
       O   -11.40960    4.86357   -9.81524
      H1   -10.89613    5.59914  -10.14864
       H    -7.13404   12.81270  -13.38187
       O    -6.79461   11.93548  -13.14464
      H1    -5.86569   12.03380  -13.43799
       H    -9.92173   10.51921   -9.14658
       O    -9.49776    9.72548   -8.82366
      H1    -8.80764    9.43117   -9.42439
       H   -14.68950   13.03568   -7.77316
       O   -14.87217   13.57528   -8.60801
      H1   -13.94854   13.88768   -8.82206
       H    -5.09017   11.58768   -4.01647
       O    -4.30057   11.46276   -4.52697
      H1    -4.49960   12.04968   -5.24589
       H    -3.89862   11.66531  -11.09123
       O    -3.04889   11.19601  -11.16411
      H1    -3.12708   10.65848  -10.38151
       H    -2.16408    7.44197   -7.24394
       O    -2.98792    7.25368   -7.75153
      H1    -3.38223    8.13413   -7.80593
       H   -14.25746   11.08463   -5.12190
       O   -14.03323   11.19425   -4.20478
      H1   -13.31221   10.60688   -4.23638
       H   -12.19987   13.53175   -7.37987
       O   -12.02330   13.99919   -8.23721
      H1   -11.39755   13.35914   -8.61999
       H   -15.92283   11.38146  -11.27413
       O   -15.48871   11.77464  -12.08209
      H1   -14.54988   11.57197  -11.89531
       H   -13.25286    8.79605   -5.29566
       O   -13.67008    8.23677   -4.58367
      H1   -14.65909    8.42110   -4.72636
       H   -12.96910   11.60039  -10.20494
       O   -13.14102   10.96183   -9.47592
      H1   -12.98583   10.04558   -9.91280
       H   -15.69947    8.80874  -11.16215
       O   -15.40680    8.96876  -10.28123
      H1   -15.96983    9.68618   -9.97420
       H    -7.27856   10.61547   -6.84928
       O    -6.74485   10.93989   -7.55277
      H1    -7.24927   11.76984   -7.78541
       H   -11.57397    9.93405   -1.45901
       O   -10.77538    9.83957   -1.96246
      H1   -10.08495   10.09062   -1.27876
       H   -12.28432   13.97040   -4.68258
       O   -12.21949   13.30185   -5.37113
      H1   -13.06525   12.82772   -5.28405

