180
frame 11 | Written by MDAnalysis XYZWriter (release 2.4.3)
       H     3.52200  -17.34932   -1.94728
       O     4.10127  -18.07789   -1.66228
      H1     3.95805  -18.02214   -0.69431
       H     5.67761  -17.30847  -10.35148
       O     5.78410  -17.32889  -11.29955
      H1     6.71581  -17.17167  -11.40777
       H     0.53626  -12.42212   -1.71468
       O     0.61434  -13.35076   -2.04954
      H1     1.32314  -13.74987   -1.52164
       H    -4.07398  -15.32785   -6.03092
       O    -4.50628  -15.64578   -5.15819
      H1    -4.04327  -15.13686   -4.49345
       H    -0.67487  -14.49271   -5.91468
       O    -0.47084  -15.40910   -6.11444
      H1    -0.20912  -15.80158   -5.27581
       H    -2.24111  -12.90308   -8.44238
       O    -2.76341  -13.41799   -7.79519
      H1    -3.22574  -12.73510   -7.28646
       H     0.64765  -17.63266  -10.34553
       O     1.29856  -18.30435  -10.28670
      H1     1.14359  -18.70765   -9.40548
       H     3.35788  -18.19672   -7.44184
       O     3.97855  -17.58753   -7.92239
      H1     4.23736  -18.24413   -8.65170
       H     1.95997  -19.86095   -6.13386
       O     2.57512  -19.40380   -6.67175
      H1     3.34770  -19.30922   -6.12238
       H    -3.62745  -10.36857   -7.86071
       O    -4.20828  -10.78040   -7.19443
      H1    -3.65312  -10.61454   -6.40161
       H    -1.87160  -11.46293   -2.36415
       O    -1.21870  -10.99557   -2.86469
      H1    -1.75291  -10.57981   -3.57646
       H     2.36905  -14.70985  -11.34439
       O     1.90760  -13.82216  -11.30963
      H1     1.01779  -14.09179  -10.95578
       H     7.41554  -15.37051   -6.91900
       O     6.85797  -16.12033   -6.84609
      H1     7.29531  -16.71248   -6.26100
       H    -0.91012  -15.66741  -12.50986
       O    -0.08308  -15.90016  -12.03004
      H1     0.44426  -16.03637  -12.81207
       H    -2.87425  -18.00023   -9.34926
       O    -3.80938  -17.78077   -9.43132
      H1    -4.13494  -18.63268   -9.13094
       H     2.73857  -12.87887   -8.78387
       O     2.07372  -12.64727   -8.10860
      H1     2.20629  -13.30214   -7.42546
       H     3.81190   -8.26799   -5.43970
       O     4.21409   -8.28087   -6.36191
      H1     4.12554   -9.21519   -6.54213
       H     6.85056  -16.22320   -2.87182
       O     7.00421  -15.48052   -3.45121
      H1     6.30985  -14.91853   -3.17078
       H     2.69727  -15.42215   -2.53342
       O     2.31173  -16.23116   -2.19097
      H1     1.68224  -16.57545   -2.86418
       H     7.42206  -17.78951   -1.18089
       O     6.69475  -17.08198   -1.00514
      H1     5.88874  -17.61581   -1.29521
       H    -0.18272  -11.78789   -7.15384
       O    -0.18284  -10.99475   -7.75165
      H1     0.67227  -11.05402   -8.17180
       H    -0.46066  -16.02193   -7.86153
       O    -0.20990  -16.25276   -8.78813
      H1    -0.57520  -17.15232   -8.88921
       H     1.60083   -8.88583   -9.68347
       O     1.62002   -9.83026   -9.50868
      H1     1.23176  -10.08353  -10.31932
       H     0.77231  -12.51929   -5.02601
       O    -0.09455  -12.70658   -5.41480
      H1    -0.74873  -12.33032   -4.79841
       H     5.16070  -13.90816   -8.08787
       O     4.89697  -14.66211   -8.67026
      H1     5.10708  -15.44292   -8.13678
       H    -5.08618  -16.44399   -9.50297
       O    -5.92093  -15.95551   -9.45184
      H1    -5.68537  -15.07751   -8.99466
       H    -1.88651  -14.18432  -12.59262
       O    -1.43289  -13.31737  -12.44041
      H1    -1.73290  -13.17663  -11.52826
       H     1.15628  -11.27673   -0.14206
       O     0.72408  -10.79911   -0.85640
      H1    -0.19337  -10.97193   -0.54055
       H     9.26774  -13.39469   -7.31107
       O     8.38255  -13.73716   -6.96155
      H1     8.41337  -13.41122   -6.03290
       H     5.75708  -16.20719   -4.29694
       O     4.90028  -16.58990   -4.51838
      H1     4.93349  -16.56628   -5.52686
       H     3.68803   -8.88306   -3.29488
       O     2.80851   -9.28119   -3.16725
      H1     2.57597   -9.01873   -2.25689
       H     1.75832   -8.65597   -7.25367
       O     0.87704   -8.45972   -6.79735
      H1     0.35388   -9.16203   -7.19799
       H    -7.22802  -13.83086   -6.53085
       O    -6.63853  -13.27455   -5.95733
      H1    -5.95426  -13.23128   -6.69133
       H     2.67206  -11.13927   -3.77160
       O     2.38257  -12.08218   -4.01023
      H1     1.95781  -12.37840   -3.19733
       H     1.16881  -15.08530   -6.34805
       O     2.13335  -14.89931   -6.45220
      H1     2.39783  -15.60778   -7.12679
       H     3.67317  -17.81100  -12.41442
       O     3.41430  -18.67383  -12.76657
      H1     3.73062  -18.63038  -13.63949
       H    -4.40067  -15.00623   -0.91737
       O    -3.56034  -14.70591   -0.45641
      H1    -2.93914  -15.14475   -1.01087
       H     0.67286   -7.87018   -5.13995
       O     0.79378   -7.58647   -4.19438
      H1     1.47402   -8.22962   -4.00704
       H     7.99916  -18.82182   -4.67985
       O     7.88374  -18.25238   -5.48366
      H1     7.08658  -18.66190   -5.91579
       H     5.49048  -15.48352  -11.59872
       O     5.52910  -14.61933  -11.92117
      H1     5.07079  -14.17500  -11.15246
       H     0.09714  -13.22916  -14.04487
       O     1.09541  -13.25910  -14.02362
      H1     1.20693  -13.56530  -13.12644
       H    -3.58411  -10.01356   -4.40742
       O    -2.83036  -10.15518   -4.96206
      H1    -2.61512   -9.24383   -5.22582
       H    -0.87255  -15.01169   -1.54620
       O    -1.33251  -15.84103   -1.74733
      H1    -1.26015  -16.42592   -1.03316
       H    -3.29852  -20.03755   -4.73375
       O    -3.29893  -19.38832   -5.39058
      H1    -3.84249  -18.69629   -4.92521
       H     0.29018  -11.56856  -12.29659
       O     0.14511  -10.67987  -11.90557
      H1    -0.51564  -10.91348  -11.21257
       H    -0.36214  -14.60288   -9.21884
       O    -0.31363  -13.69953   -9.70810
      H1     0.34042  -13.27019   -9.11693
       H    -0.23317  -19.75245   -5.10843
       O    -0.78712  -18.96503   -5.25593
      H1    -1.73862  -19.30086   -5.34152
       H     4.84810  -11.99329   -3.37447
       O     5.69189  -11.57580   -3.33255
      H1     6.33034  -12.07613   -3.81940
       H     2.87829  -11.29325   -7.22422
       O     3.29307  -10.84859   -6.46157
      H1     2.83144  -11.25782   -5.67871
       H    -4.46053  -13.37480   -8.46325
       O    -5.39178  -13.44013   -8.64050
      H1    -5.43474  -12.91161   -9.47863
       H     2.62978  -17.12646    0.40000
       O     3.29196  -17.68904    0.85502
      H1     2.63207  -18.43311    1.07554
       H     4.09613  -15.14470   -4.02982
       O     3.96758  -14.31619   -3.50636
      H1     3.23674  -13.89808   -4.01875
       H     3.45772  -15.88365   -9.97949
       O     3.07291  -16.19907  -10.84692
      H1     2.43528  -16.83238  -10.53658
       H    -2.33605  -10.52983  -10.10290
       O    -1.84092   -9.98338   -9.50127
      H1    -1.29174  -10.55324   -8.97046
       H    -1.37343  -19.41988   -8.18762
       O    -1.33425  -18.71842   -8.81286
      H1    -1.26078  -19.27905   -9.66314
       H     0.01458  -17.56733   -4.30508
       O     0.20589  -16.79060   -3.75630
      H1    -0.58990  -16.68371   -3.16583
       H     4.80872  -18.36793   -4.55492
       O     5.05779  -19.23266   -5.00422
      H1     4.72719  -19.86580   -4.35249
       H     3.06400  -12.20277  -11.63986
       O     4.02719  -12.01191  -11.60898
      H1     4.18495  -11.34247  -12.32326
       H     6.99950  -12.82953   -7.31199
       O     6.10227  -12.51073   -7.50543
      H1     6.10689  -11.63726   -7.05234
       H     4.99334  -10.98521  -10.21480
       O     5.57430  -10.62570   -9.51405
      H1     5.57439  -11.41504   -8.93701

