180
frame 9 | Written by MDAnalysis XYZWriter (release 2.4.3)
       H   -16.10638   -6.65137   -2.80952
       O   -16.01771   -6.39807   -3.76457
      H1   -16.93861   -6.59679   -3.98417
       H   -19.71239  -10.49976  -14.56779
       O   -19.26814  -10.17927  -15.34562
      H1   -18.48337   -9.67324  -15.07900
       H   -14.57469  -13.34286   -8.69833
       O   -15.42831  -13.43803   -8.18116
      H1   -15.61458  -14.35359   -8.20850
       H   -16.53287   -3.12914  -14.63330
       O   -17.40177   -3.06308  -15.13472
      H1   -18.11534   -2.86145  -14.48847
       H   -13.79640   -9.21684  -12.46253
       O   -13.13436   -8.50890  -12.59920
      H1   -13.73969   -7.73205  -12.49848
       H    -9.08343   -5.92098   -9.23658
       O    -9.60087   -5.18076   -9.68162
      H1   -10.37875   -5.75560   -9.98336
       H   -12.93428   -3.64799   -9.75296
       O   -12.39614   -2.85257   -9.81604
      H1   -12.04388   -2.75818   -8.92710
       H    -9.79044   -6.50181  -14.88024
       O   -10.42300   -7.08006  -14.36490
      H1   -11.08610   -7.45237  -14.99963
       H   -11.91030   -7.14285  -10.90123
       O   -11.81020   -6.21965  -10.87783
      H1   -12.63643   -6.00075  -10.44209
       H   -12.98319  -12.48701   -9.61278
       O   -13.34912  -13.30627  -10.04363
      H1   -12.74517  -14.00872   -9.83444
       H   -16.04660   -3.08825  -17.81309
       O   -16.03714   -4.07106  -18.07206
      H1   -15.95763   -4.65014  -17.30951
       H   -15.92307   -4.51417   -8.45972
       O   -16.79663   -4.29329   -8.28091
      H1   -16.73145   -3.54262   -7.67419
       H   -17.53166   -1.24251  -11.89761
       O   -18.43516   -0.81943  -11.92050
      H1   -18.27280    0.15593  -11.92159
       H   -18.58721   -7.61571   -9.23099
       O   -19.12778   -7.76867  -10.01419
      H1   -19.32741   -8.72095   -9.83167
       H   -11.71564   -3.33968  -11.66642
       O   -11.86157   -3.74152  -12.56356
      H1   -11.28088   -4.49871  -12.49593
       H   -17.45736   -5.26860   -6.75096
       O   -18.10941   -5.59963   -6.10639
      H1   -18.96049   -5.25010   -6.46610
       H   -17.55313   -2.06386   -5.84246
       O   -18.14286   -2.58603   -5.26256
      H1   -17.56286   -2.61873   -4.49913
       H   -16.09369  -13.24722  -13.13439
       O   -16.18745  -12.93938  -12.18595
      H1   -15.36712  -12.40161  -12.04857
       H   -15.82876   -1.79350   -9.83118
       O   -16.67043   -2.22098  -10.11335
      H1   -16.71097   -2.99539   -9.55386
       H   -19.36683   -3.74585  -12.59031
       O   -19.04491   -4.55930  -12.13465
      H1   -18.20721   -4.23988  -11.86080
       H   -16.45278  -13.16534  -15.57871
       O   -15.72954  -13.45795  -15.05159
      H1   -15.25890  -14.07955  -15.63258
       H   -15.67039  -11.53981  -14.47393
       O   -15.96925  -10.63255  -14.33117
      H1   -16.20652  -10.70467  -13.40143
       H   -17.11547  -10.21665   -5.95849
       O   -16.52165  -10.25541   -5.10667
      H1   -17.02610  -10.19645   -4.27744
       H   -10.55008  -10.97040  -12.35346
       O   -11.37447  -10.76479  -12.83259
      H1   -11.56794   -9.89222  -12.53153
       H   -17.60414   -8.32408  -12.28065
       O   -17.87070   -7.41001  -12.55779
      H1   -18.40766   -7.24296  -11.76760
       H   -16.85999   -8.63416   -8.53491
       O   -16.60834   -7.79040   -8.22849
      H1   -16.11103   -7.97574   -7.40719
       H   -12.85467  -10.17777   -8.56812
       O   -12.71109  -10.66322   -9.38385
      H1   -11.86582  -10.09700   -9.57512
       H   -13.10270  -11.48904  -12.12736
       O   -14.00704  -11.21352  -11.93100
      H1   -13.93079  -10.95974  -11.01453
       H   -16.84095   -1.43919   -7.80242
       O   -16.29085   -1.82640   -7.15399
      H1   -15.43410   -1.32381   -7.12003
       H   -17.70345   -1.13556  -17.40568
       O   -18.67968   -1.02096  -17.32328
      H1   -19.04254   -1.93977  -17.23982
       H   -18.41866  -13.24674   -8.57610
       O   -17.99891  -12.99846   -9.41020
      H1   -17.13806  -12.73136   -9.06534
       H   -11.92236  -11.37149  -14.79613
       O   -11.66028  -11.12871  -15.70468
      H1   -10.67200  -11.16221  -15.66269
       H   -13.83034    0.10021  -10.78165
       O   -13.92221   -0.42987   -9.98703
      H1   -13.46662   -1.23082  -10.25216
       H   -15.70826   -8.33528  -17.70377
       O   -15.93880   -7.99575  -18.62772
      H1   -16.89010   -7.70403  -18.55756
       H   -15.13032   -3.38190  -11.94647
       O   -14.93519   -4.05247  -12.61674
      H1   -14.08024   -3.86333  -12.97975
       H   -13.40822   -9.75842  -17.05354
       O   -13.37968  -10.08152  -17.96088
      H1   -13.82602  -10.91944  -17.95210
       H   -16.43719  -10.53286  -11.26606
       O   -17.09416   -9.99722  -11.70520
      H1   -17.87942  -10.46194  -11.89137
       H   -17.84706   -4.47260  -18.00174
       O   -18.70955   -4.58683  -18.39823
      H1   -19.31410   -4.43765  -17.69378
       H   -19.05019   -6.29889   -4.44725
       O   -19.03850   -6.33136   -3.49111
      H1   -18.98056   -5.37183   -3.31472
       H   -16.99878  -10.03972  -18.17236
       O   -17.54354  -10.61813  -18.68907
      H1   -17.95289  -11.13193  -17.97829
       H   -16.27354   -9.66080  -15.61790
       O   -16.72769   -9.09070  -16.26444
      H1   -16.42456   -8.19572  -15.98555
       H   -18.61452   -7.19630  -19.89418
       O   -18.69134   -7.36498  -18.93070
      H1   -18.90771   -6.48066  -18.60500
       H   -12.47157   -3.54031  -14.31343
       O   -12.95266   -2.91102  -14.93336
      H1   -12.92705   -3.56962  -15.70233
       H   -16.27828  -14.27877  -11.22392
       O   -16.39749  -15.13559  -10.72077
      H1   -16.88139  -14.74374   -9.95967
       H   -12.51458   -6.52765   -6.83837
       O   -13.40026   -6.24132   -7.01917
      H1   -14.03742   -6.92559   -6.81153
       H   -14.89101   -0.50148  -12.69318
       O   -15.77220   -0.89523  -12.75700
      H1   -15.97709   -0.65738  -13.67340
       H   -16.86059   -6.07784  -15.65840
       O   -16.05538   -6.17557  -16.17638
      H1   -15.37607   -6.05962  -15.45750
       H   -18.59139   -6.21454  -14.09618
       O   -18.50164   -5.84857  -14.99732
      H1   -18.26324   -4.94053  -14.84657
       H   -14.10502  -11.24943   -6.54783
       O   -13.49509  -10.52936   -6.74871
      H1   -13.26509  -10.21110   -5.81481
       H   -18.60443  -10.98032   -6.75568
       O   -18.10839  -10.29611   -7.26369
      H1   -18.47050   -9.49522   -6.77741
       H   -18.92256   -7.15266   -6.10899
       O   -19.14135   -8.09506   -5.85282
      H1   -20.11011   -8.02092   -6.14832
       H   -19.53629   -0.79921   -7.76256
       O   -18.67308   -0.46987   -8.12741
      H1   -18.51006    0.32189   -7.61658
       H   -11.80738   -5.36430  -17.18552
       O   -12.47503   -5.28037  -16.50028
      H1   -12.42525   -6.10089  -16.00346
       H   -14.63379   -6.08401  -10.26756
       O   -14.16446   -5.50139   -9.63803
      H1   -14.03061   -6.07629   -8.87603
       H   -15.50352   -7.42254   -4.96069
       O   -15.32290   -7.96263   -5.78746
      H1   -15.73244   -8.83013   -5.59210
       H   -16.06225   -6.90115  -12.20450
       O   -15.13807   -6.71685  -12.05992
      H1   -15.05112   -5.70390  -12.32430
       H   -18.59053  -11.95773  -15.91837
       O   -18.00202  -12.61645  -16.31206
      H1   -18.48792  -13.36337  -16.02365
       H   -17.24322   -1.21395  -15.39125
       O   -16.62428   -0.44500  -15.29926
      H1   -17.27269    0.28747  -15.43600
       H   -15.53092  -11.53641   -5.60727
       O   -14.95415  -12.32724   -5.77045
      H1   -15.46184  -12.68513   -6.50978
       H   -12.24246   -9.22805  -15.37816
       O   -12.32759   -8.37392  -15.87528
      H1   -11.57207   -8.39948  -16.52442

