180
frame 12 | Written by MDAnalysis XYZWriter (release 2.4.3)
       H    -1.66456   -4.39013    0.86060
       O    -2.57555   -4.69210    1.03912
      H1    -2.75902   -4.30604    1.86119
       H     6.44157   -5.60363   -1.28690
       O     5.58724   -6.05929   -1.21698
      H1     4.94812   -5.43616   -1.60088
       H     0.65150    0.36318   -0.28460
       O     0.18970   -0.50180   -0.12736
      H1    -0.64624   -0.26326    0.33314
       H     6.31891   -3.11211    2.03591
       O     5.94245   -2.79147    1.20610
      H1     5.35206   -3.50140    0.90907
       H    -2.19461   -9.05639   -2.67040
       O    -2.45061   -8.12892   -2.35565
      H1    -1.57197   -7.69457   -2.52183
       H    -2.83700   -1.13547   -3.63737
       O    -2.31519   -0.95722   -2.81764
      H1    -1.58168   -0.39393   -3.14125
       H     0.96779   -5.13515   -1.73039
       O     1.54025   -4.59657   -1.15347
      H1     0.92819   -3.84714   -1.20157
       H    -5.83011   -6.78164   -1.63101
       O    -5.49528   -6.42725   -0.81414
      H1    -4.71248   -7.03416   -0.66724
       H    -2.39553  -11.35482   -2.09884
       O    -2.06463  -10.78561   -2.82764
      H1    -2.65989  -10.67468   -3.53791
       H    -2.75393   -0.78161   -0.59503
       O    -2.66737   -0.73104    0.37117
      H1    -3.53291   -0.36639    0.60992
       H     3.21486   -4.12545   -1.86156
       O     3.95143   -4.17030   -2.46329
      H1     3.82522   -3.31512   -2.96903
       H     3.82549   -0.82584   -3.09687
       O     4.01350   -1.60692   -3.65317
      H1     4.97106   -1.65981   -3.63155
       H     5.84591   -4.20329    3.71874
       O     5.37702   -5.00872    3.50517
      H1     6.07879   -5.60996    3.26797
       H     5.04200   -4.56952   -6.29964
       O     5.94232   -4.56084   -5.92534
      H1     6.30673   -4.14272   -6.72444
       H     3.71111   -6.88569   -5.74246
       O     4.06411   -7.36844   -6.49504
      H1     3.79966   -8.29164   -6.37814
       H     4.39487   -8.03790    2.57795
       O     4.51398   -8.78794    3.10946
      H1     3.96141   -8.63321    3.83511
       H     3.23499   -5.03906   -3.91795
       O     2.81864   -5.32315   -4.78076
      H1     2.28909   -6.07689   -4.46086
       H     6.06600   -7.69860   -4.07573
       O     5.63630   -7.99949   -3.21326
      H1     5.48172   -7.10885   -2.84107
       H     2.65577   -1.40921   -6.68812
       O     3.51448   -1.81634   -6.71691
      H1     3.70469   -1.88499   -5.76846
       H     6.88542   -0.48682   -1.57411
       O     6.85146   -1.38338   -1.33596
      H1     6.52829   -1.46086   -0.41144
       H     2.40153   -4.18864    1.75145
       O     3.34472   -4.36942    1.68531
      H1     3.67470   -4.25920    2.60252
       H    -2.39870   -7.52434   -0.50205
       O    -3.04617   -7.25980    0.21630
      H1    -2.69077   -6.39504    0.47341
       H     2.56498   -9.60996    0.40264
       O     2.75662  -10.54389    0.27539
      H1     3.59634  -10.55031    0.75263
       H    -0.86470   -8.28814    2.11861
       O     0.12705   -8.18872    2.09212
      H1     0.42732   -9.10084    2.31684
       H     1.11612  -10.83668   -0.18415
       O     0.14554  -10.99262   -0.19814
      H1    -0.15142  -10.11844   -0.44234
       H     4.78585   -6.42475    0.39188
       O     4.40536   -6.87654    1.15600
      H1     3.86618   -6.07825    1.44631
       H    -1.87400   -3.06726   -4.40194
       O    -2.16108   -3.82310   -3.90605
      H1    -3.08735   -3.89206   -4.10298
       H     3.91981   -9.06365   -2.87664
       O     3.14112   -9.57307   -2.55383
      H1     3.31901   -9.54522   -1.59506
       H     2.17665  -10.26145   -6.11380
       O     1.56555   -9.52684   -6.00160
      H1     0.99917   -9.67511   -6.81434
       H     2.43109  -11.13021   -2.87790
       O     2.01885  -11.87829   -3.43310
      H1     1.51225  -12.24269   -2.71389
       H    -0.34560   -2.11051    1.71705
       O    -1.13315   -2.03014    2.23161
      H1    -1.73635   -1.61107    1.64138
       H    -4.56123   -0.89982   -4.25348
       O    -4.15312   -1.66518   -4.73293
      H1    -4.09109   -1.31623   -5.61760
       H    -4.41219   -3.88592    0.24330
       O    -5.25923   -3.70133   -0.18955
      H1    -5.38102   -4.61091   -0.58185
       H     6.70454   -3.15229   -4.73043
       O     6.72985   -2.26695   -4.47864
      H1     7.19223   -2.35313   -3.61489
       H    -1.37002   -4.92397   -5.26734
       O    -1.51152   -5.47052   -6.08587
      H1    -0.64034   -5.48417   -6.54744
       H    -1.59159   -8.54592   -7.14636
       O    -1.16660   -8.30400   -6.31971
      H1    -1.51643   -7.43429   -6.23349
       H    -0.05173   -6.27308   -3.72494
       O    -0.54161   -6.01108   -2.92220
      H1    -1.02932   -5.21519   -3.26358
       H     1.44445   -8.21627   -4.72277
       O     1.72607   -7.52197   -4.06970
      H1     2.17270   -8.00478   -3.39908
       H     2.14234   -3.34705    4.53998
       O     2.11276   -2.56596    3.95836
      H1     2.85449   -2.10819    4.32243
       H    -4.77275   -9.98461   -4.38247
       O    -3.86753  -10.02494   -4.70385
      H1    -3.71812   -9.12267   -4.92433
       H    -0.21640   -6.12711   -8.28551
       O     0.53820   -6.12042   -7.70775
      H1     0.47488   -7.01653   -7.30431
       H     1.09626   -1.69938   -5.23413
       O     1.22828   -0.75235   -5.51947
      H1     0.38117   -0.69438   -6.04197
       H     0.86998   -2.88524   -3.30469
       O     0.89118   -3.01075   -4.27292
      H1     1.72739   -3.50312   -4.48186
       H     0.77906   -5.39220    0.00990
       O     0.08217   -5.61894    0.67281
      H1     0.35443   -6.47975    0.98863
       H     4.56911   -1.89334    1.13192
       O     3.95054   -1.18035    1.21522
      H1     3.24585   -1.76178    1.56438
       H     3.23685   -5.11747   -7.48731
       O     3.81845   -4.50176   -7.92732
      H1     3.20900   -3.81800   -8.32183
       H     2.86545   -7.46558    0.41322
       O     2.01829   -7.74667    0.11849
      H1     1.47069   -7.79774    0.91721
       H    -0.77783   -3.74878    5.24617
       O    -0.15358   -3.04291    5.54607
      H1     0.31746   -2.82172    4.77229
       H     0.20757    0.20077   -4.17131
       O    -0.05567    0.86410   -3.48206
      H1    -0.37157    1.60094   -4.04195
       H     4.22416   -0.12473   -0.85685
       O     3.69610    0.36097   -1.46463
      H1     4.31937    0.76461   -2.00683
       H     6.15381   -9.17097   -1.77768
       O     6.41852   -9.67042   -0.96831
      H1     6.06158  -10.59640   -1.15974
       H     2.03948   -5.82183    5.67528
       O     1.83858   -5.25269    4.97488
      H1     0.89521   -5.22329    4.98920
       H    -5.63611   -9.08895   -3.05510
       O    -5.35048   -8.12801   -3.19347
      H1    -4.39305   -8.26761   -2.97344
       H    -4.33144   -5.19461   -8.09496
       O    -3.61750   -5.78225   -7.84786
      H1    -3.23271   -5.42700   -7.01978
       H     0.61337    1.45588   -1.79033
       O     1.25557    1.70439   -1.11223
      H1     2.06143    1.30396   -1.33748
       H    -1.23600   -5.11938    2.79935
       O    -0.82556   -5.50389    3.59866
      H1    -0.86381   -6.44441    3.42501
       H     6.65035   -6.06301   -5.46555
       O     7.05850   -6.82003   -4.99788
      H1     7.50677   -7.30199   -5.66254
       H    -5.18104   -4.46788   -3.16711
       O    -4.83147   -5.16082   -3.75779
      H1    -4.65203   -5.92965   -3.23139
       H    -3.21229   -8.25051    3.23761
       O    -2.40961   -8.09268    2.73887
      H1    -2.78988   -7.90127    1.87084
       H    -1.11199   -2.63577   -1.94043
       O    -0.18943   -2.69799   -1.64397
      H1    -0.12303   -1.90310   -1.14800

