180
frame 8 | Written by MDAnalysis XYZWriter (release 2.4.3)
       H     7.00653   -0.30045    3.04402
       O     7.45423   -1.09226    3.41863
      H1     7.32819   -1.77460    2.78833
       H    -1.97442    8.39375    8.34900
       O    -2.24027    9.20146    8.72891
      H1    -2.59764    9.01105    9.62073
       H    -0.83198    3.73262    0.06016
       O    -0.46254    3.07236   -0.59599
      H1    -0.44609    2.18698   -0.13468
       H     5.29651    3.39756   11.10726
       O     4.44381    3.04003   11.49554
      H1     4.63191    2.92347   12.42860
       H     1.65441    3.35263    4.49419
       O     1.56126    3.87018    5.28422
      H1     2.29722    4.46643    5.27392
       H     7.43931    4.21364    3.85454
       O     7.31893    3.24225    3.90104
      H1     7.31965    2.94659    4.81076
       H     1.71169    3.44440    9.57125
       O     2.05492    4.17548   10.17468
      H1     2.74419    3.66348   10.63226
       H    -0.98970    5.68424    4.29221
       O    -0.32846    5.84929    4.96246
      H1     0.29168    5.08422    4.95093
       H     1.83860    5.04148    0.94072
       O     2.44980    4.46389    1.33354
      H1     2.25706    3.55831    0.96331
       H     1.74783    0.95876    0.04009
       O     2.21515    1.74377    0.30999
      H1     2.85532    1.29471    0.89374
       H     3.24100    6.43664    6.69803
       O     3.52399    6.08191    5.86013
      H1     4.05522    5.27262    6.07400
       H     4.68601    0.02966    5.95435
       O     3.77123    0.43258    6.11346
      H1     3.92311    1.15399    6.74636
       H    -1.25367    5.20203    9.82109
       O    -1.51879    4.47364    9.32739
      H1    -2.43653    4.25592    9.44949
       H    -2.01498    5.81840    0.18331
       O    -1.75398    4.98676    0.61259
      H1    -1.73928    5.15085    1.58989
       H     5.66122    3.40594    5.72806
       O     5.04893    3.88018    6.29248
      H1     5.37426    4.16766    7.16141
       H     9.49221    7.73555    6.02043
       O     8.98043    6.92206    6.29860
      H1     9.39237    6.18572    5.82331
       H    -2.83780    1.57736    4.46061
       O    -3.79473    1.54878    4.26630
      H1    -3.88733    1.51504    3.30115
       H     1.39221    7.72430   -0.21672
       O     2.16266    7.31774    0.25790
      H1     2.39576    7.86854    1.01576
       H     6.74530    2.88769    0.59127
       O     6.48148    3.56289   -0.06305
      H1     5.49738    3.72910   -0.00487
       H     0.21185    6.19621   -1.72704
       O     0.25513    5.30736   -2.10661
      H1    -0.05063    4.68583   -1.41067
       H     1.67453    9.57995    5.60391
       O     2.49918    9.77465    6.08532
      H1     2.29348   10.58634    6.54995
       H    -0.44205    7.64986   10.28838
       O    -0.53127    6.70504   10.54960
      H1    -0.97792    6.82184   11.40870
       H     2.95342   -0.35137   10.87709
       O     3.56538   -0.86001   10.35075
      H1     4.40121   -0.34389   10.29190
       H     2.80384    2.85017   -2.96843
       O     2.92325    1.96451   -2.56611
      H1     2.87505    2.21861   -1.65768
       H     3.49324    7.56932   -1.12293
       O     3.67674    7.44323   -2.05187
      H1     3.37758    6.54556   -2.28005
       H     2.97344   -0.10773    4.57073
       O     2.46919   -0.21312    3.71418
      H1     2.19554   -1.15217    3.71864
       H     7.13067    0.70649    6.03814
       O     7.43733    1.60193    6.20848
      H1     8.37764    1.62669    6.41045
       H     7.89705    6.53134    4.23597
       O     7.26811    5.97016    3.69799
      H1     7.36026    6.26793    2.80567
       H     8.00556    7.59195    7.71103
       O     7.50928    8.04857    8.39740
      H1     7.26300    8.88952    8.03460
       H     6.30371    8.06838    1.01598
       O     5.50870    7.59292    0.67013
      H1     4.78306    7.82141    1.30814
       H    -1.89264    3.73271    4.12876
       O    -2.24771    4.38048    3.58798
      H1    -3.11852    4.49054    4.03058
       H     8.03852    1.06813    1.47479
       O     7.20163    1.31834    1.87414
      H1     7.42794    2.09358    2.45655
       H     3.58090    8.70708    3.47976
       O     3.08109    8.72581    2.65271
      H1     2.66074    9.57532    2.74125
       H     6.39931    6.42953    8.69345
       O     5.82350    5.62699    8.82726
      H1     5.11335    6.05234    9.35371
       H    -1.55615    5.81146    8.07846
       O    -1.64678    6.51545    7.40366
      H1    -0.91392    6.32539    6.80957
       H     0.64946   -1.38588    6.90089
       O    -0.18444   -1.39169    6.38735
      H1    -0.29969   -0.45294    6.14409
       H     0.08563    9.42152    2.31362
       O    -0.40063   10.10286    1.88474
      H1    -1.32484    9.85320    2.08030
       H     6.49047    0.00774   10.21392
       O     5.65563    0.55204   10.03562
      H1     5.66571    1.31787   10.60484
       H     1.35548    8.30369    9.32882
       O     0.88616    8.84666    9.98748
      H1     1.63719    9.09194   10.61480
       H     6.70548   10.59112    4.29306
       O     6.96967    9.91095    4.93355
      H1     6.36177    9.21484    4.88330
       H     2.79387   -0.74741    6.88074
       O     2.35377   -1.44335    7.37945
      H1     2.71024   -1.41312    8.29340
       H     6.10468   -1.92598    6.31896
       O     6.07983   -1.12355    5.80132
      H1     6.53886   -1.30680    4.96132
       H    -0.72425    2.91741    7.80232
       O    -0.06916    2.49132    7.18762
      H1     0.34061    3.19091    6.72792
       H     0.97205    1.80961    8.41772
       O     1.25492    1.45796    9.27081
      H1     2.07523    1.05676    9.11953
       H     3.66312    5.13707    0.34538
       O     4.31475    5.16578   -0.35748
      H1     4.73684    6.01951   -0.16549
       H    -1.25081    0.07791   10.10076
       O    -1.00115    0.84750   10.63142
      H1    -0.14843    0.97870   10.26651
       H    -2.37808    9.37485    6.86957
       O    -2.27648    9.55546    5.95139
      H1    -3.01974   10.16570    5.64181
       H     3.15424    7.53346    8.83157
       O     2.62814    7.66133    8.00514
      H1     2.72319    8.50063    7.56657
       H    -1.02211    0.27438    1.23348
       O    -1.34252    1.17741    1.08234
      H1    -2.28295    0.93015    1.22671
       H     1.39698    8.30047    3.61979
       O     0.55011    8.56686    3.99590
      H1     0.24611    7.71339    4.29551
       H     3.07275    5.89266   10.34113
       O     3.70096    6.61501   10.35422
      H1     3.97486    6.77267   11.26104
       H    -0.94765    1.67578    6.00946
       O    -1.18689    1.11158    5.24551
      H1    -0.54702    1.31398    4.58143
       H    -4.95004    4.64524    3.67346
       O    -4.78878    4.13453    4.51030
      H1    -4.65048    3.20131    4.25223
       H     0.53057    2.06691    2.68658
       O     0.74740    1.89652    3.56573
      H1     1.17081    1.03765    3.57941
       H     4.90946    1.81422    8.36906
       O     4.05203    2.14851    8.13656
      H1     4.34609    2.77540    7.39238
       H     4.85736    0.85020    2.13859
       O     4.16117    0.36943    1.70806
      H1     3.56323    0.02811    2.43109
       H     0.13109    3.53397   10.99982
       O    -0.31534    3.52867   11.85453
      H1    -1.27175    3.53176   11.70143
       H     4.55998    7.38089    5.14288
       O     5.34042    7.82529    4.81720
      H1     5.98861    7.07502    4.83060
       H    -3.00262    6.69595    6.24314
       O    -3.57446    7.25060    5.71353
      H1    -3.03276    8.12904    5.72594
       H     6.82242    4.51377    9.93565
       O     6.93368    3.88648   10.70237
      H1     6.84941    4.36050   11.54615

