180
frame 7 | Written by MDAnalysis XYZWriter (release 2.4.3)
       H    -7.64159   -8.36252  -17.64333
       O    -7.91671   -9.29721  -17.66568
      H1    -7.86862   -9.64629  -18.52516
       H    -9.36520  -12.97083  -18.35869
       O    -9.92172  -12.98282  -19.11184
      H1    -9.28522  -12.66205  -19.80727
       H    -9.64482   -4.86603  -16.54749
       O    -9.93049   -5.74913  -16.78262
      H1   -10.32435   -5.59182  -17.63028
       H    -5.17536  -11.51326  -15.23795
       O    -4.90524  -12.37206  -15.04305
      H1    -4.03340  -12.37101  -15.48697
       H    -7.25370  -12.01885  -11.18195
       O    -7.36533  -11.56977  -11.98026
      H1    -6.47983  -11.37690  -12.30140
       H    -3.76554   -2.11042  -18.19776
       O    -3.30310   -2.54000  -17.41354
      H1    -3.73294   -2.05619  -16.67322
       H    -1.18059  -11.31973  -12.06586
       O    -0.47911  -10.66938  -11.98469
      H1    -0.35570  -10.28334  -12.85510
       H    -1.92335  -10.86421  -17.09035
       O    -1.44662  -11.74079  -17.08939
      H1    -1.42699  -12.12478  -17.99432
       H     4.05249  -11.29174  -15.09324
       O     3.73149  -11.36167  -16.03119
      H1     2.86405  -11.76067  -15.96811
       H    -7.94184   -9.43647  -15.89182
       O    -7.92820   -9.40352  -14.89570
      H1    -8.12479   -8.49444  -14.63428
       H    -5.76014  -15.37365  -14.76318
       O    -6.18328  -14.89937  -15.50709
      H1    -5.61055  -14.13945  -15.62075
       H   -10.68242   -9.61982  -19.22884
       O   -10.35353   -8.70206  -19.45474
      H1    -9.45406   -8.62942  -18.94106
       H    -9.91038  -13.31584  -14.17155
       O   -10.18776  -13.18221  -15.07396
      H1    -9.40340  -12.97759  -15.54227
       H    -4.57651   -0.10117  -15.50957
       O    -4.79374   -1.05275  -15.49726
      H1    -5.29778   -1.27473  -14.65186
       H    -4.90311  -10.13408  -12.84091
       O    -4.80776  -10.65222  -11.99607
      H1    -4.14223  -10.21141  -11.44596
       H   -12.35747   -8.73827  -16.61147
       O   -12.36756   -7.70356  -16.58474
      H1   -11.61928   -7.47481  -17.13572
       H     3.71431   -9.47683  -16.36997
       O     3.31119   -8.62341  -16.46283
      H1     3.26806   -8.34052  -15.52176
       H    -7.38436   -3.18773  -18.06118
       O    -7.65411   -3.35112  -19.00569
      H1    -7.09436   -4.12151  -19.28719
       H    -4.42121  -18.19880  -17.97544
       O    -3.53771  -18.18084  -18.29749
      H1    -3.52898  -17.53001  -19.00698
       H   -12.47267  -10.85623  -19.55820
       O   -11.71215  -10.95301  -18.99385
      H1   -11.25841  -11.78046  -19.15909
       H    -5.25907  -13.25582  -12.95180
       O    -5.03073  -13.20769  -12.02177
      H1    -4.96274  -12.21924  -11.94490
       H    -9.01351  -10.74615  -12.06408
       O    -9.94977  -10.60441  -11.89801
      H1    -9.98838   -9.63991  -11.76562
       H    -7.45595   -9.56616  -11.06964
       O    -7.83704   -9.00345  -10.34856
      H1    -7.03221   -8.78378   -9.88273
       H    -9.75951   -2.32413  -16.26673
       O    -9.28906   -2.95596  -15.76343
      H1    -9.72264   -3.01337  -14.92553
       H    -2.22521   -4.55863  -15.09351
       O    -2.96282   -4.81186  -15.69378
      H1    -3.47122   -4.07188  -16.10836
       H    -2.86318  -12.81834  -17.61112
       O    -3.65491  -13.35040  -17.70493
      H1    -3.60310  -14.21687  -17.26148
       H    -0.39184  -16.47186  -18.55737
       O    -0.54491  -15.72807  -19.13416
      H1     0.17174  -15.84692  -19.82323
       H     1.29843  -13.36007  -15.93076
       O     1.04340  -12.40327  -16.12445
      H1     0.15135  -12.44507  -16.47927
       H    -6.36143   -6.86205  -17.00152
       O    -7.24581   -7.00932  -16.73369
      H1    -7.77769   -6.30361  -17.07485
       H    -3.42679   -9.37950  -17.27258
       O    -3.23422   -9.81859  -16.43510
      H1    -3.72089   -9.37015  -15.75315
       H     0.07721   -7.04977  -13.29502
       O     0.86567   -6.47963  -13.21869
      H1     1.51901   -6.90205  -13.81109
       H    -6.05560   -9.48665  -14.64812
       O    -5.17555   -9.33743  -14.35054
      H1    -5.04255   -8.39296  -14.07141
       H    -3.75310   -9.34644  -19.68296
       O    -4.17545   -8.82856  -18.99046
      H1    -4.99934   -8.45586  -19.37878
       H    -8.11257    0.05169  -18.22237
       O    -7.44091   -0.34031  -17.59725
      H1    -6.98322   -1.07995  -17.93489
       H     3.60305  -12.49579  -18.89189
       O     4.35002  -12.78414  -18.33627
      H1     4.24755  -12.33141  -17.49895
       H     1.64555  -11.87147  -17.84777
       O     1.86637  -11.73728  -18.82560
      H1     2.11528  -10.79308  -18.88051
       H   -12.25164   -7.47967  -13.66809
       O   -11.64832   -6.78388  -14.00911
      H1   -11.64241   -6.98924  -14.95970
       H    -2.14488  -15.78264  -16.30449
       O    -2.63939  -15.07924  -15.81170
      H1    -3.23031  -15.46776  -15.11941
       H    -2.66237  -13.44074  -13.69289
       O    -2.02207  -13.02981  -13.16508
      H1    -2.36330  -13.07703  -12.25884
       H    -0.66111   -5.54621  -17.86865
       O    -0.99876   -4.69122  -17.55444
      H1    -1.72507   -4.82816  -16.95975
       H    -0.78254   -0.58911  -17.16706
       O    -1.57465   -0.35430  -17.60112
      H1    -2.26168   -0.98961  -17.55942
       H    -4.88567   -4.82573  -10.52501
       O    -4.52635   -5.64520  -10.80510
      H1    -4.78566   -5.76826  -11.73809
       H    -6.60631  -16.49534  -18.02488
       O    -7.11887  -15.72453  -18.06832
      H1    -7.12531  -15.49511  -17.15329
       H    -3.70899   -6.34147  -13.52872
       O    -4.65448   -6.49051  -13.39542
      H1    -5.23333   -5.97800  -13.98577
       H     0.55225   -6.93282  -19.74310
       O     0.22819   -7.80571  -19.43324
      H1     1.02309   -8.42099  -19.44460
       H     0.75750   -2.91824  -18.97397
       O     1.66386   -2.96403  -18.66898
      H1     1.73271   -2.28036  -18.01377
       H    -1.44784   -3.04323  -11.98687
       O    -1.74143   -2.68611  -12.81235
      H1    -1.26362   -3.32070  -13.43787
       H    -9.13919   -4.10744  -12.51535
       O    -8.19338   -4.18179  -12.60583
      H1    -7.93874   -4.56400  -13.47437
       H    -6.54184  -13.90747  -18.63456
       O    -6.22522  -12.98462  -18.75373
      H1    -5.34958  -12.98162  -18.30624
       H    -7.48122   -2.86650  -16.02693
       O    -6.62372   -3.17955  -16.35683
      H1    -5.96159   -2.38168  -16.18472
       H    -3.94738   -5.91758  -17.10817
       O    -4.67107   -6.51609  -17.43641
      H1    -4.25738   -7.26882  -17.81731
       H    -6.62584   -4.45625  -15.19716
       O    -6.80999   -5.24001  -14.64214
      H1    -6.90870   -5.94429  -15.30408
       H     1.53047   -7.54616  -16.57202
       O     0.89164   -7.15351  -15.96062
      H1     0.99553   -6.19957  -15.94115
       H     2.19821   -3.42355  -15.84953
       O     1.75606   -4.25240  -16.01478
      H1     1.37339   -4.02915  -16.90589
       H     0.77154  -12.82444  -14.11979
       O     0.63060  -13.28467  -13.24162
      H1    -0.34694  -13.08486  -13.19677
       H    -7.41355  -12.26624  -17.68418
       O    -8.19030  -12.02536  -17.14638
      H1    -8.23097  -11.09811  -17.28501
       H    -2.07452   -7.39716  -12.23600
       O    -1.76250   -7.33126  -13.14627
      H1    -1.61834   -8.22493  -13.49189
       H    -0.15566   -4.86049  -13.81148
       O    -0.51119   -4.39635  -14.58674
      H1     0.28062   -4.09936  -15.06604
       H     0.70627   -9.95471  -14.84724
       O     0.32114   -9.31915  -14.25259
      H1     0.38244   -8.48756  -14.79852
       H   -12.12647  -10.60475  -17.13993
       O   -12.70048  -10.35675  -16.34044
      H1   -12.12093  -10.49715  -15.57920

