180
frame 1 | Written by MDAnalysis XYZWriter (release 2.4.3)
       H    -2.50972  -10.24697  -14.16942
       O    -1.97818   -9.63517  -13.59098
      H1    -2.31625   -9.90189  -12.73687
       H    -5.70123   -8.23738  -11.64253
       O    -6.10035   -8.42115  -10.74320
      H1    -5.86094   -7.63375  -10.22464
       H    -2.08339    0.30751  -13.76316
       O    -1.78295   -0.19542  -12.98367
      H1    -2.58808   -0.06488  -12.40380
       H    -2.26060   -3.40530  -13.67061
       O    -2.57066   -2.58535  -14.13136
      H1    -2.22224   -1.88933  -13.52383
       H    -6.55692    2.18083  -17.77719
       O    -7.24455    1.96856  -17.11002
      H1    -7.17386    1.00382  -17.18414
       H    -8.20960    0.77699   -9.31420
       O    -8.40178   -0.13009   -9.65062
      H1    -8.69764   -0.55523   -8.85238
       H    -6.14377   -1.92871  -10.43092
       O    -6.95785   -1.96608  -10.91282
      H1    -7.50701   -1.18939  -10.63753
       H    -2.59275    3.44743  -12.42915
       O    -3.33351    3.86900  -12.95683
      H1    -4.12378    3.56809  -12.50782
       H   -11.45942   -1.15922  -15.40811
       O   -11.87134   -0.80947  -16.23905
      H1   -12.68044   -0.34136  -16.03924
       H    -4.90631    1.42085  -14.78435
       O    -5.85723    1.35651  -14.74381
      H1    -6.16472    1.50638  -15.63542
       H    -5.41739   -2.01032  -15.03338
       O    -5.24185   -1.30301  -15.67614
      H1    -5.25981   -0.51158  -15.15426
       H    -4.33446   -1.02243  -17.79945
       O    -4.34797   -0.64886  -18.70925
      H1    -5.08297   -1.20544  -19.03627
       H    -8.67276   -6.00942  -12.06071
       O    -8.96184   -6.51083  -12.86730
      H1    -8.71411   -5.99561  -13.63657
       H   -11.09272   -6.47511  -12.47072
       O   -11.60044   -6.52460  -11.61187
      H1   -12.57099   -6.60972  -11.88471
       H    -9.10253   -4.07664  -10.67417
       O    -8.18058   -4.36082  -10.43652
      H1    -7.67139   -3.49500  -10.51127
       H     0.72438   -2.59236  -12.67530
       O     0.60599   -3.00698  -11.77008
      H1     1.12537   -3.76557  -11.88317
       H    -0.33348    0.94077  -12.45750
       O     0.24600    1.70621  -12.16913
      H1    -0.45630    2.32398  -11.74057
       H    -7.03179   -5.77310  -12.94580
       O    -6.30890   -5.19838  -12.58656
      H1    -6.60898   -5.13985  -11.71379
       H   -11.26174   -3.80798  -10.09309
       O   -10.76112   -3.98450  -10.87403
      H1   -11.05811   -4.88821  -11.25165
       H    -3.33179   -5.39995  -11.85344
       O    -3.34936   -6.28778  -11.41362
      H1    -4.09637   -6.29366  -10.73865
       H     0.88865   -1.76861   -8.53957
       O     0.67668   -1.33661   -9.34056
      H1     0.51212   -1.95272  -10.05201
       H    -9.78688    0.82081  -10.33553
       O   -10.51973    1.16952  -10.90404
      H1   -11.39618    0.83935  -10.62274
       H    -8.37273   -2.82209  -13.78283
       O    -7.76478   -2.03608  -13.51806
      H1    -7.23994   -2.30330  -12.75678
       H    -1.02902   -7.83197  -12.73154
       O    -0.35531   -7.08050  -12.75134
      H1     0.36370   -7.36381  -12.20284
       H    -6.61245   -9.65228  -13.57637
       O    -7.58886   -9.84340  -13.60880
      H1    -7.98111   -9.02536  -13.39652
       H    -0.89666   -2.11700  -16.48620
       O    -1.22195   -3.00110  -16.52647
      H1    -1.67658   -3.09155  -15.65687
       H    -2.82408  -10.01887  -10.66291
       O    -3.46032  -10.20312  -11.36854
      H1    -4.16199   -9.47947  -11.18530
       H   -12.30444   -1.82454  -13.77583
       O   -12.43006   -1.02950  -13.20850
      H1   -11.45560   -0.79996  -13.11358
       H   -10.08333   -3.87062  -14.31432
       O    -9.18821   -4.12211  -14.52289
      H1    -9.12969   -3.89454  -15.46427
       H    -3.26850    2.26163  -15.64269
       O    -3.14881    1.70952  -14.83165
      H1    -3.16522    2.46307  -14.24684
       H    -3.07816   -7.20487  -16.19352
       O    -3.96558   -7.41002  -15.81963
      H1    -4.42313   -7.85976  -16.55397
       H    -1.10283   -4.08560  -12.03110
       O    -1.74429   -4.52522  -12.65075
      H1    -1.40883   -5.45132  -12.56347
       H     0.36116   -6.37339  -15.79519
       O     0.33538   -7.27920  -15.46472
      H1     0.09450   -7.04337  -14.52287
       H    -2.69362   -3.44324  -17.36970
       O    -3.35848   -3.61775  -18.06502
      H1    -3.33930   -2.90392  -18.70234
       H    -7.21711   -4.94817   -9.01079
       O    -6.91439   -5.08133   -8.10141
      H1    -7.70647   -5.45562   -7.73073
       H    -1.33537   -9.25700  -16.92491
       O    -1.49969   -8.31871  -17.19386
      H1    -1.15595   -7.77145  -16.41681
       H    -4.15000   -1.04081  -12.04564
       O    -3.87600   -0.46075  -11.37048
      H1    -4.42529    0.31083  -11.32279
       H    -8.48784    2.77775  -13.07718
       O    -7.54085    2.66530  -12.77384
      H1    -7.12061    2.19796  -13.55348
       H   -10.41603    0.56053  -16.79272
       O   -10.09399    1.44692  -17.12199
      H1    -9.12334    1.25471  -17.13836
       H    -8.92210   -7.33430  -17.89660
       O    -8.31099   -7.88235  -17.34433
      H1    -8.86232   -8.30515  -16.62082
       H    -5.72412   -6.10851   -8.65322
       O    -5.01625   -6.47927   -9.21021
      H1    -4.73802   -7.10464   -8.51256
       H    -8.74573   -1.86942  -16.43508
       O    -9.40934   -2.58378  -16.68563
      H1    -9.74130   -2.23851  -17.55468
       H    -9.12764   -0.80549  -13.39832
       O    -9.66349   -0.01618  -13.40187
      H1    -9.74872    0.20516  -12.44628
       H    -8.79604   -9.89546  -10.87094
       O    -8.90674   -8.99387  -10.54824
      H1    -7.92253   -8.69160  -10.63367
       H    -2.11003   -3.40279   -7.99233
       O    -2.59049   -4.10300   -8.42339
      H1    -3.16359   -4.47350   -7.73086
       H    -0.31123   -5.18510   -8.69625
       O     0.42468   -4.85237   -8.13672
      H1     0.47401   -5.46928   -7.39777
       H   -11.40498   -3.50908  -12.73840
       O   -11.61392   -3.40324  -13.67285
      H1   -12.07375   -4.19805  -13.99111
       H    -1.96638   -6.76959  -10.07960
       O    -1.23567   -6.64067   -9.46710
      H1    -0.62471   -7.37775   -9.70110
       H    -7.95503    0.09711  -15.22268
       O    -7.79622   -0.51620  -15.97549
      H1    -6.95308   -0.90698  -15.73059
       H    -4.23186   -8.25436  -13.64187
       O    -5.11776   -8.16383  -13.30041
      H1    -4.98366   -7.22725  -13.10512
       H    -4.33329   -2.83665  -13.80517
       O    -4.99236   -2.64651  -13.12398
      H1    -5.56690   -3.43042  -13.18402
       H    -3.98859   -1.88533  -10.08596
       O    -4.50736   -2.72809   -9.85401
      H1    -3.83234   -3.28574   -9.50078
       H    -6.52492   -2.72943  -18.13126
       O    -6.62700   -2.23574  -18.96404
      H1    -6.62893   -3.02117  -19.57985
       H    -4.78773    3.04696  -10.78846
       O    -4.99333    2.26399  -11.34644
      H1    -5.91828    2.39520  -11.41058
       H   -11.76410   -3.44972  -16.60288
       O   -12.36376   -4.15256  -16.75268
      H1   -13.00125   -3.67651  -17.28613
       H    -4.95063   -2.42599   -8.10110
       O    -5.34908   -2.23012   -7.23612
      H1    -6.05468   -2.91231   -7.22963
       H    -6.20952   -4.95587  -16.34539
       O    -6.06333   -4.35902  -17.13957
      H1    -5.15376   -4.06154  -17.08487
       H     1.21122   -4.79737  -16.87233
       O     0.75648   -4.77847  -16.03036
      H1     0.04612   -4.11471  -16.16869
       H    -7.49154   -6.67815  -15.91765
       O    -7.08279   -6.41554  -15.11517
      H1    -6.65809   -7.27534  -14.78624
       H     1.25155   -3.16561  -14.91612
       O     0.83656   -2.37831  -14.50503
      H1     0.76314   -1.74022  -15.30064

