180
frame 1 | Written by MDAnalysis XYZWriter (release 2.4.3)
       H    10.43180   12.57868  -17.19092
       O    10.71342   13.01573  -16.40585
      H1    11.65411   12.76908  -16.27242
       H     7.22544   10.72515   -9.24238
       O     6.95164   11.50222   -9.79771
      H1     6.52824   12.05246   -9.12014
       H     9.71647   13.20376   -8.38334
       O     9.16156   13.10089   -7.64562
      H1     9.58991   13.65384   -6.99138
       H     3.20197   10.80425  -12.04012
       O     3.57073   10.96958  -12.94214
      H1     4.47244   10.81431  -12.67926
       H     6.61432   11.97542  -18.04271
       O     6.20937   11.41425  -18.76480
      H1     6.04956   12.12965  -19.45752
       H     6.77660   10.02935  -13.00447
       O     6.90436   10.57966  -13.76093
      H1     7.88216   10.47426  -13.89761
       H    15.86154   17.05696  -13.66382
       O    15.37502   17.18713  -12.80331
      H1    14.44172   17.37481  -13.17108
       H     7.90366   16.07854  -15.37993
       O     8.66892   16.02905  -14.78243
      H1     8.64565   16.95481  -14.42467
       H     9.94939   15.98001  -16.11440
       O    10.63712   15.85930  -16.75358
      H1    10.64424   14.87698  -16.79763
       H     7.05002   18.82288  -13.17363
       O     6.37891   18.68243  -12.52236
      H1     6.04734   19.55536  -12.47800
       H    11.16513    8.53671  -13.01376
       O    10.42864    7.95532  -12.90367
      H1    10.86835    7.22259  -13.37333
       H     5.62466   19.25203   -7.94430
       O     6.45049   19.80482   -7.95582
      H1     6.99905   19.44503   -8.65522
       H     7.92330   16.03345  -19.82955
       O     7.47401   16.53323  -19.17214
      H1     8.20903   17.03029  -18.68424
       H    12.40948   16.17430  -16.30691
       O    13.32893   16.09915  -15.91711
      H1    13.68188   15.42907  -16.52275
       H    10.44031    9.45568  -16.53779
       O    10.83782    9.26681  -17.42086
      H1    10.48648   10.00035  -17.93569
       H     1.93102   16.34979  -12.15018
       O     1.64208   17.15197  -11.59618
      H1     1.70116   17.89590  -12.21766
       H    11.22772   15.29088  -12.53067
       O    11.16721   14.38318  -12.27941
      H1    10.26083   14.16956  -12.02378
       H     7.12730   12.74573  -14.93381
       O     7.57146   13.06904  -15.70994
      H1     8.45801   13.35901  -15.51740
       H    11.76887   19.44123  -11.63563
       O    12.65696   19.81676  -11.59282
      H1    13.03631   19.00382  -11.14405
       H    11.73921   14.70708   -7.97404
       O    12.05020   14.65819   -7.02395
      H1    11.79690   15.53530   -6.65570
       H    11.14880   14.99456  -10.44986
       O    11.00905   15.50881   -9.64198
      H1    11.88378   15.96082   -9.58011
       H     2.05982   12.01328  -13.77256
       O     1.20923   12.24335  -14.15472
      H1     1.42286   12.20447  -15.05849
       H     5.00979   17.23147   -8.26883
       O     4.50549   18.05161   -8.26990
      H1     3.66257   17.71911   -8.63805
       H    12.64796   16.28412  -13.92606
       O    12.43906   16.81582  -13.16384
      H1    12.00392   17.57918  -13.66763
       H     3.77601   11.18144   -9.80604
       O     4.39194   10.41831   -9.80403
      H1     5.20008   10.90468  -10.05685
       H     9.40113   18.18923   -6.54698
       O     8.60459   18.54172   -6.09059
      H1     7.93623   18.64038   -6.79882
       H     9.00667   19.32392  -14.28144
       O     8.24500   18.98350  -14.75950
      H1     8.41512   19.36885  -15.64978
       H    13.52703   16.85773  -11.13514
       O    13.51144   17.54270  -10.46766
      H1    14.36663   17.46465   -9.94568
       H    15.37322   14.93227  -11.51513
       O    14.60606   14.48795  -12.03532
      H1    14.27107   15.28718  -12.40434
       H    10.10098   16.93019  -18.08055
       O     9.70480   17.74273  -18.51204
      H1     9.86038   17.52785  -19.44973
       H     9.71282    9.18075  -14.58632
       O     9.68925   10.11616  -14.92215
      H1    10.48207   10.48143  -14.50009
       H     0.49936   14.39096  -12.09653
       O     1.11599   14.65206  -12.80904
      H1     1.12794   13.88435  -13.41572
       H     5.79445    8.19328  -12.02375
       O     6.67507    8.55972  -11.77836
      H1     6.32082    9.06318  -11.00010
       H     4.95513   14.20748  -17.64717
       O     4.80945   13.52337  -16.95901
      H1     4.43325   12.78916  -17.41741
       H     2.59732   18.69028  -14.09258
       O     2.06039   19.14964  -13.43328
      H1     2.73055   19.54663  -12.78924
       H    14.67881   12.27955   -9.61793
       O    13.78078   12.12371   -9.99005
      H1    13.69025   12.81404  -10.66530
       H     6.60281   16.21558   -8.69319
       O     5.83650   15.78137   -8.25813
      H1     5.87012   14.82770   -8.26630
       H    11.43654   18.83142  -15.22686
       O    11.38569   19.03141  -14.27449
      H1    12.16223   19.53051  -14.04966
       H     8.69657   11.78634  -11.12096
       O     9.62996   11.81334  -10.97940
      H1     9.70458   11.29930  -10.18200
       H     8.49856   15.01080  -13.17140
       O     8.31461   14.39844  -12.47225
      H1     7.36222   14.51388  -12.21541
       H     7.19438    8.85072   -8.13465
       O     7.87629    9.21983   -8.78439
      H1     8.60021    9.33211   -8.10227
       H     3.72561   15.29214  -15.17347
       O     3.05683   15.91654  -15.54048
      H1     3.68296   16.65627  -15.70329
       H     5.26256   17.82886  -15.17299
       O     4.41552   18.25099  -14.98875
      H1     4.66037   19.16074  -15.21450
       H     6.13166   17.24755  -10.20682
       O     7.07006   17.58799  -10.20942
      H1     6.98022   18.14919  -11.08159
       H     7.19687   13.95728   -6.54294
       O     7.55999   14.00965   -5.63232
      H1     6.71816   13.66756   -5.07984
       H     5.39905   13.84172  -12.17186
       O     5.77062   14.37526  -11.43020
      H1     5.15202   15.13243  -11.42069
       H    12.20609   11.38713  -13.07349
       O    11.72984   10.67014  -12.67704
      H1    11.07144   10.97194  -12.03517
       H     9.76395   18.48718  -10.83595
       O    10.06137   19.09802  -11.51674
      H1     9.32588   19.72394  -11.45781
       H    13.46140   10.60304   -9.08829
       O    13.78026    9.87416   -8.53625
      H1    12.97733    9.29898   -8.41965
       H     2.30286   12.94691   -8.65051
       O     3.16543   12.87171   -9.11689
      H1     3.07132   13.36863   -9.94184
       H     5.99633   12.13161   -7.18603
       O     5.70661   12.85568   -7.85274
      H1     4.76234   12.94286   -7.73798
       H    10.29421   10.19691   -7.03034
       O     9.37906   10.43170   -6.97137
      H1     9.28607   11.27824   -7.52997
       H     6.64735   16.36396  -17.62146
       O     6.60788   16.16349  -16.65143
      H1     6.59296   15.17327  -16.71383
       H    14.02953    9.55014  -12.87481
       O    14.63312    9.76776  -12.10033
      H1    13.97662    9.99443  -11.42521
       H     3.66492   17.21902  -11.85192
       O     4.50752   16.88099  -11.48323
      H1     5.07016   17.28149  -12.21837
       H     9.90715   16.94484   -9.39677
       O     9.31751   17.71737   -9.19973
      H1     8.51067   17.38679   -9.56475
       H    13.78030   11.47391  -17.10149
       O    13.31369   12.26655  -17.31173
      H1    13.26200   12.18625  -18.26203
       H    10.99116   18.72767  -17.53244
       O    11.59250   19.26243  -16.92406
      H1    12.40939   19.08236  -17.42068
       H     4.28354   12.80622  -13.88136
       O     4.76452   13.62888  -13.99944
      H1     5.25423   13.39365  -14.80633
       H    13.59917   13.40480  -13.48835
       O    12.85124   12.96164  -13.90824
      H1    12.07205   13.35979  -13.46064

