180
frame 11 | Written by MDAnalysis XYZWriter (release 2.4.3)
       H    -4.41663    5.70304   12.34061
       O    -3.54405    6.01100   12.62558
      H1    -3.41234    6.69015   11.93448
       H    -3.40646   14.67028    8.21472
       O    -3.77734   15.17133    7.49437
      H1    -2.96240   15.31785    6.97319
       H    -0.20441   10.60591   11.26721
       O     0.07761   11.24911   10.58226
      H1     0.85822   10.79992   10.15765
       H    -3.97261   11.86968   13.63231
       O    -3.30849   11.44449   13.06589
      H1    -2.80477   12.22302   12.73925
       H     2.45567   10.94405   13.36752
       O     2.81521   11.68189   13.89444
      H1     2.21992   11.79397   14.64919
       H    -4.91111   15.08869    3.77275
       O    -5.09120   15.79802    4.38862
      H1    -5.92188   16.21467    4.17868
       H     5.12971   12.01061    9.52915
       O     5.25809   12.32404   10.43144
      H1     5.04083   11.52646   10.97944
       H     4.42090    9.62380   10.02559
       O     4.25772    9.66461   10.93919
      H1     5.12135    9.34634   11.18328
       H    -3.34903   17.50664   11.21545
       O    -3.90607   17.40673   12.00144
      H1    -3.91714   16.51143   12.27359
       H    -6.71664    9.18171    7.98052
       O    -5.94545    9.48100    7.53519
      H1    -5.84487   10.38033    7.87154
       H    -2.83849    8.38497    6.77408
       O    -2.83750    8.31925    5.80712
      H1    -2.60713    7.40797    5.66698
       H    -2.12076   11.42777    7.52211
       O    -2.24771   11.51530    8.44873
      H1    -1.31674   11.69010    8.73748
       H    -5.38305    5.70819    9.87669
       O    -4.78230    5.19316    9.32731
      H1    -4.34877    4.56878    9.92643
       H    -4.47091   13.70827    6.40360
       O    -4.63160   12.79858    6.06475
      H1    -5.39069   12.54873    6.59737
       H    -6.00118   17.32800    7.77307
       O    -5.87202   16.56974    8.42661
      H1    -5.18955   16.04741    7.90473
       H    -5.11738   14.52807   12.69388
       O    -4.53665   14.62410   13.45424
      H1    -5.17906   14.85236   14.22894
       H    -3.08008   10.72959    1.16245
       O    -3.38327   11.24025    1.88566
      H1    -3.00135   10.74600    2.63799
       H    -0.07365   12.78697    4.32365
       O     0.15684   12.48988    5.21278
      H1    -0.64537   12.07570    5.48244
       H     2.06609   15.50488   13.78752
       O     2.95100   15.77047   13.66441
      H1     2.91789   16.66914   14.06224
       H    -0.02996    9.27832   14.82802
       O     0.48145    9.07024   15.65536
      H1     1.27616    8.63240   15.27645
       H    -4.43804    8.62197    4.76041
       O    -5.37277    8.89431    4.71921
      H1    -5.58498    9.11896    5.65254
       H    -6.92207   14.56473   11.07782
       O    -5.95178   14.41101   11.03175
      H1    -5.59585   15.13273   10.47366
       H    -1.73807   14.22149    4.92250
       O    -1.52942   14.68789    5.78583
      H1    -0.61598   14.47655    6.01469
       H     1.14158    9.46173    8.18333
       O     1.36588   10.36026    7.93546
      H1     1.56109   10.27859    7.03834
       H    -1.62596    9.30673   12.71638
       O    -0.75384    9.63880   12.81553
      H1    -0.37967    8.89891   12.35876
       H     5.30349    9.20493    8.12513
       O     4.77042    9.96631    8.02845
      H1     4.21566    9.71408    7.32776
       H    -3.56160   17.17746    4.36723
       O    -2.71726   17.60281    4.43414
      H1    -2.98179   18.40860    3.90422
       H     2.18396   12.22821    8.64997
       O     3.01257   12.73080    8.52159
      H1     2.79212   13.61688    8.94555
       H     0.65088    9.05462    2.84018
       O     0.55771    9.05478    3.81310
      H1     0.10997    8.22015    3.93036
       H     2.93264   16.72818   10.64518
       O     3.15869   16.95738    9.82778
      H1     2.54416   16.57506    9.22921
       H    -7.09973   13.18630    7.94289
       O    -6.74589   12.29696    8.00324
      H1    -6.29257   12.32624    8.89922
       H    -4.06857    8.82187   11.25494
       O    -3.23304    8.34851   11.01800
      H1    -3.08876    8.50478   10.08878
       H    -4.57551   11.19269   11.48877
       O    -5.05620   11.46935   10.70995
      H1    -5.21168   12.39319   10.90257
       H    -6.92177   12.86082   14.66037
       O    -6.37960   12.31029   14.06088
      H1    -7.05027   12.18976   13.31838
       H    -2.95375   12.97570    9.39285
       O    -3.13887   13.82796    9.74512
      H1    -2.83439   13.90786   10.65689
       H    -4.16646   18.05389    9.16126
       O    -3.27344   18.32922    9.34002
      H1    -3.33842   19.30155    9.35162
       H    -2.14784    5.16640    4.78109
       O    -2.60028    5.92407    4.41959
      H1    -3.47244    5.75893    4.80948
       H     3.69040   14.35598   12.15772
       O     3.33736   13.78445   11.41903
      H1     4.18392   13.41636   11.07176
       H    -5.41524   12.95078    4.45944
       O    -5.87523   13.07934    3.59041
      H1    -6.48669   13.81287    3.82864
       H     1.47090   14.12408   11.57758
       O     0.53732   14.10607   11.66771
      H1     0.32149   13.31033   11.24606
       H     4.35541   10.66908    5.34755
       O     5.31633   10.76903    5.22268
      H1     5.46677    9.95752    4.77865
       H    -2.51900   14.33372   13.35039
       O    -1.99236   13.77951   12.73860
      H1    -1.12953   14.25448   12.63009
       H    -0.04491    6.89420    9.09453
       O     0.66751    7.53566    8.77463
      H1     1.48023    6.96311    8.79148
       H     3.99418    7.05003    8.94569
       O     3.31076    6.47879    8.70331
      H1     3.65903    6.31491    7.81540
       H    -0.45547   16.26730    9.57776
       O     0.17911   16.91893    9.45122
      H1     0.33277   16.92445    8.46255
       H    -7.15502   15.38533    8.16372
       O    -7.76179   14.69711    8.06085
      H1    -8.40317   14.75652    8.80008
       H     0.08885   17.05183    6.43911
       O     0.94576   17.51842    6.53648
      H1     0.71002   18.38831    6.27874
       H    -0.66108   18.62581    9.20080
       O    -0.45761   19.57246    9.04143
      H1    -0.50286   19.56939    8.07918
       H    -2.83994    9.87754    8.52634
       O    -3.24131    8.94267    8.54068
      H1    -4.20511    9.03648    8.62126
       H     4.88891   15.59552    7.00070
       O     5.41590   14.79153    7.10982
      H1     4.85983   14.15578    6.69428
       H    -2.51632   18.28333    7.64811
       O    -1.93420   18.38255    6.81899
      H1    -2.56230   18.12123    6.07041
       H    -2.88934   12.85898    3.16433
       O    -2.50583   13.73534    3.32013
      H1    -1.58472   13.59117    2.99955
       H    -1.87923    5.22598   10.00288
       O    -1.29638    5.98701    9.85343
      H1    -1.31916    6.42250   10.74513
       H    -1.96056   11.04019   14.35609
       O    -1.81295   11.31260   15.24270
      H1    -0.84925   11.38660   15.33041
       H     1.53442    6.04790    6.21229
       O     0.56437    6.16463    6.40145
      H1     0.62366    6.76182    7.12819
       H     1.79071   10.08693    4.54277
       O     2.24606   10.65618    5.23264
      H1     1.49578   11.32508    5.24043
       H    -3.15954   11.74560    5.69069
       O    -2.25722   11.30996    5.69133
      H1    -2.50678   10.45110    5.95763
       H     0.36012   15.03685    2.93346
       O     0.27304   14.06360    2.73452
      H1     1.15602   13.78480    2.52448
       H     1.01156    7.00978   11.93413
       O     0.20481    7.49257   11.47076
      H1     0.62392    7.82292   10.65655
       H    -0.94541   17.06819    2.43894
       O    -0.44980   16.72554    3.13969
      H1    -1.08217   16.92583    3.86214

