180
frame 9 | Written by MDAnalysis XYZWriter (release 2.4.3)
       H    -1.14694   -8.53768  -13.84995
       O    -1.05116   -8.07420  -13.03962
      H1    -0.89491   -8.81112  -12.42852
       H    -4.97356   -6.59425  -10.36964
       O    -5.79409   -6.10787  -10.49940
      H1    -6.09223   -6.02010   -9.58510
       H    -5.61432  -10.55857  -18.87143
       O    -5.63644  -10.59630  -19.82724
      H1    -5.72474  -11.46918  -20.10957
       H    -1.96142    0.47132  -13.30867
       O    -2.64081    0.10717  -12.72237
      H1    -3.43341    0.57759  -13.00428
       H    -2.11876   -3.04672  -12.62246
       O    -2.69348   -2.61938  -13.28734
      H1    -2.73339   -1.66050  -12.93192
       H    -9.35298   -7.36649  -17.37703
       O    -9.79645   -8.24509  -17.29720
      H1   -10.29609   -8.30850  -18.12084
       H    -3.87293    0.46321  -16.81061
       O    -3.61536    0.14213  -15.88762
      H1    -3.04404   -0.66498  -16.14190
       H    -8.44583   -0.75907  -17.97649
       O    -8.28584   -0.42756  -17.09981
      H1    -8.57823   -1.16077  -16.53890
       H    -6.36202   -1.36269   -9.92768
       O    -7.33361   -1.31271  -10.00947
      H1    -7.35068   -0.64693   -9.28271
       H   -13.60548   -1.13653  -15.50837
       O   -13.63760   -0.18007  -15.53042
      H1   -14.46299    0.07209  -15.09835
       H    -6.58288    1.86057  -15.08614
       O    -7.56325    1.88724  -15.20992
      H1    -7.71280    1.23719  -15.93600
       H    -6.16068   -1.46951  -13.50900
       O    -6.62441   -0.89965  -14.16170
      H1    -7.24052   -0.46322  -13.57405
       H    -7.25821   -9.35435  -14.74580
       O    -6.37833   -9.40212  -15.13557
      H1    -6.14024   -8.46938  -15.23715
       H    -6.12765   -2.36813  -15.58943
       O    -5.81640   -3.27811  -15.78603
      H1    -6.13893   -3.24425  -16.71167
       H    -9.79044   -6.50181  -14.88024
       O   -10.42300   -7.08006  -14.36490
      H1   -11.08610   -7.45237  -14.99963
       H    -9.70601   -6.04826  -12.70757
       O    -9.43169   -5.12922  -12.39086
      H1    -9.43939   -5.23999  -11.42417
       H    -7.71167   -4.94180  -12.92482
       O    -6.69565   -4.99560  -12.93591
      H1    -6.48751   -5.25554  -12.01511
       H    -3.24379   -7.58054  -17.84726
       O    -3.42085   -6.72552  -17.36345
      H1    -4.38304   -6.55292  -17.55858
       H   -11.71564   -3.33968  -11.66642
       O   -11.86157   -3.74152  -12.56356
      H1   -11.28088   -4.49871  -12.49593
       H    -1.71839   -5.24867  -10.44032
       O    -1.78604   -5.84068   -9.65146
      H1    -2.41407   -5.36339   -9.08345
       H    -8.48584   -0.48341  -11.00192
       O    -9.18723    0.16685  -11.25507
      H1    -9.67584   -0.42929  -11.85224
       H    -9.83879   -3.19557  -12.73442
       O    -9.40996   -2.29149  -12.70245
      H1    -8.85234   -2.46331  -11.93171
       H    -9.33938   -8.34268  -14.01136
       O    -8.69153   -8.88810  -13.57810
      H1    -8.86342   -9.78351  -13.71225
       H     0.30043   -4.13278  -17.33490
       O     0.68241   -3.25872  -17.09608
      H1    -0.19156   -2.85142  -16.91754
       H    -2.32607   -2.53963  -15.13188
       O    -1.94468   -1.87339  -15.83296
      H1    -1.35624   -1.34801  -15.22001
       H    -8.60036   -4.90799  -15.69731
       O    -8.54505   -5.77987  -16.09984
      H1    -8.06924   -5.60475  -16.88448
       H    -4.63810    1.00260  -14.60586
       O    -4.79716    1.54470  -13.80187
      H1    -4.36344    2.37287  -13.94681
       H    -2.61123   -7.43444  -12.87128
       O    -3.30705   -6.76956  -12.68433
      H1    -3.83067   -6.91588  -13.41755
       H    -0.61932   -3.35760  -11.42791
       O    -1.14667   -4.05132  -11.87067
      H1    -0.53916   -4.56442  -12.40328
       H    -3.11393   -3.97860  -14.27831
       O    -3.28143   -4.57111  -15.03515
      H1    -3.78881   -4.00443  -15.63146
       H    -1.19778   -5.48611  -17.05500
       O    -0.42704   -5.97791  -17.34060
      H1    -0.52610   -5.97137  -18.26364
       H    -1.83639    1.06215  -18.17517
       O    -2.30169    0.56732  -18.88376
      H1    -3.20582    0.92176  -18.70115
       H    -4.91460   -2.82554  -10.38822
       O    -4.52739   -2.44544   -9.59236
      H1    -3.56188   -2.72456   -9.54210
       H    -8.85910    1.56182  -12.50037
       O    -8.93760    2.32715  -13.02423
      H1    -8.37941    2.24397  -13.83989
       H   -12.00848    0.20063  -16.21554
       O   -11.07840    0.57755  -16.12506
      H1   -10.57780   -0.01370  -16.60806
       H    -8.08669   -8.66743  -17.60267
       O    -7.16616   -8.85559  -17.72250
      H1    -6.94868   -9.38607  -16.89488
       H    -8.00839   -3.75810  -19.55849
       O    -8.78400   -3.57913  -18.98169
      H1    -9.29279   -4.38427  -18.97710
       H    -6.52414    3.81373  -17.08209
       O    -5.70967    4.10841  -16.68316
      H1    -5.27743    4.63756  -17.41155
       H    -3.88063  -11.20736  -16.62481
       O    -4.81485  -10.94635  -16.70478
      H1    -4.95184  -10.45980  -15.83834
       H   -11.19894    0.38850  -14.37486
       O   -11.31807    0.69000  -13.46616
      H1   -10.66379    1.44632  -13.37237
       H    -8.22658    2.41214  -17.75152
       O    -7.87248    3.08798  -18.34461
      H1    -8.40108    3.83876  -17.99724
       H   -12.47157   -3.54031  -14.31343
       O   -12.95266   -2.91102  -14.93336
      H1   -12.92705   -3.56962  -15.70233
       H   -10.41636   -3.20837  -15.23242
       O    -9.47063   -3.27706  -15.17612
      H1    -9.19618   -2.79280  -14.38479
       H    -2.83742   -5.35179  -17.79706
       O    -2.55654   -4.44315  -18.24789
      H1    -2.64834   -4.73635  -19.17772
       H    -3.62101   -7.54055  -11.12536
       O    -3.71162   -7.82672  -10.23609
      H1    -2.92596   -7.32425   -9.93830
       H    -2.63347   -9.97447  -17.72738
       O    -2.41759   -9.22741  -18.31705
      H1    -1.49819   -9.44028  -18.52121
       H    -4.43419   -2.58884  -12.67852
       O    -5.36167   -2.71025  -12.48678
      H1    -5.42986   -3.62899  -12.88827
       H   -11.80738   -5.36430  -17.18552
       O   -12.47503   -5.28037  -16.50028
      H1   -12.42525   -6.10089  -16.00346
       H    -1.83990    3.07489  -16.54974
       O    -1.76733    2.14273  -16.58996
      H1    -2.54029    1.67128  -16.09508
       H    -4.74900   -3.69787  -18.44374
       O    -5.02142   -2.78984  -18.69588
      H1    -4.27474   -2.29994  -18.21725
       H   -12.22705    3.26877  -15.47242
       O   -12.19486    3.01929  -16.42166
      H1   -11.77729    2.13542  -16.38261
       H    -4.60007    2.38013  -11.19615
       O    -4.83690    2.61505  -10.30265
      H1    -5.81500    2.78757  -10.35456
       H    -0.58245    1.01962  -15.47322
       O    -0.62754    0.64746  -14.59071
      H1     0.10672    0.01877  -14.65152
       H    -2.02239   -9.36148  -15.55524
       O    -2.75850   -8.78371  -15.35119
      H1    -2.77739   -8.08950  -16.01419
       H    -5.74649   -6.02476  -16.74728
       O    -5.97603   -6.17825  -17.70595
      H1    -6.28929   -7.06067  -17.73683
       H     0.52903   -6.20034  -15.92119
       O     1.30037   -5.96608  -15.35345
      H1     1.01377   -6.04546  -14.44813
       H   -12.24246   -9.22805  -15.37816
       O   -12.32759   -8.37392  -15.87528
      H1   -11.57207   -8.39948  -16.52442
       H    -5.27217    2.32526  -17.00260
       O    -4.89418    1.68760  -17.66476
      H1    -5.36398    1.99476  -18.46658
       H    -4.41623   -5.73481  -14.93904
       O    -5.14790   -6.32625  -15.01467
      H1    -5.80682   -5.92359  -14.48627
       H     0.20101   -2.94659  -13.75008
       O     0.56819   -2.04160  -13.62238
      H1     1.44275   -2.19630  -14.00675

