180
frame 11 | Written by MDAnalysis XYZWriter (release 2.4.3)
       H    16.13562   10.26569   -7.59078
       O    15.70126   11.08988   -7.33961
      H1    15.27032   11.24705   -8.17593
       H    15.52010   13.86606  -14.16115
       O    14.78533   13.73600  -13.57644
      H1    14.22874   13.24359  -14.17472
       H    15.03938    6.22922   -9.09007
       O    15.96407    6.02463   -9.20835
      H1    16.20497    6.76107   -9.79145
       H    16.16107    9.90119   -0.80241
       O    16.49480    9.22584   -1.42996
      H1    17.19769    9.76019   -1.84469
       H    12.59712    3.37298   -9.87480
       O    12.96786    3.37303   -8.96386
      H1    13.56440    2.61680   -9.00746
       H    13.23347    5.80763   -5.98680
       O    13.01565    5.48104   -5.11460
      H1    13.66564    5.97919   -4.61742
       H    17.95997    8.03912   -0.81073
       O    18.41324    7.37437   -0.26229
      H1    18.53274    7.88871    0.55584
       H    12.43822    8.88794  -13.75444
       O    11.98093    8.34616  -14.43005
      H1    12.73463    7.72399  -14.53526
       H    18.29863   10.24948   -9.55563
       O    18.86910   10.87261  -10.01550
      H1    18.33491   11.67730   -9.89714
       H    16.18312    7.19062   -6.40978
       O    15.98449    8.16420   -6.43160
      H1    15.85256    8.26895   -5.49844
       H    17.96467    2.84660  -11.46556
       O    18.56070    2.05526  -11.42930
      H1    19.08828    2.21425  -10.62036
       H    17.92326    9.47586  -16.92121
       O    17.73243    9.87354  -16.04448
      H1    18.06981    9.20032  -15.43621
       H    12.12113    6.05039   -8.53333
       O    12.98634    6.12055   -8.93737
      H1    13.20774    5.18144   -8.94528
       H    16.05553    6.83124  -15.64586
       O    16.96552    6.37382  -15.75102
      H1    17.50325    6.90597  -15.12753
       H    16.91398    2.65603   -5.02561
       O    17.16202    3.36275   -5.60670
      H1    17.97671    3.11818   -6.06556
       H    11.31632   11.28576   -2.64864
       O    12.23597   11.01149   -2.88353
      H1    12.73297   10.99419   -2.03769
       H    12.70872   12.47116   -8.68972
       O    12.25137   12.88236   -7.94378
      H1    11.62422   13.45854   -8.37435
       H    14.90066    1.51703  -11.47322
       O    14.58246    2.33188  -11.87059
      H1    15.17512    2.93912  -11.42052
       H    16.50077   10.66092  -14.30774
       O    15.62958   11.02018  -13.98697
      H1    15.91959   11.67370  -13.24286
       H    11.81840    8.85854   -3.56955
       O    12.10827    8.02132   -3.24453
      H1    12.32140    8.21778   -2.30300
       H    14.64060    5.33916  -13.31062
       O    13.85406    5.79949  -12.97083
      H1    13.21628    5.68093  -13.67523
       H    15.65772    3.84336  -14.29505
       O    16.16954    4.67903  -13.95911
      H1    16.29010    5.22696  -14.77992
       H    16.30440    4.66956   -6.13136
       O    15.71151    5.36288   -6.53136
      H1    15.99649    5.42291   -7.46741
       H    14.38832   12.54535   -2.81919
       O    15.22717   12.02557   -2.88689
      H1    15.03085   11.22019   -3.39853
       H    18.89451   15.41194   -6.08226
       O    18.26672   15.89383   -5.50596
      H1    18.39086   16.82070   -5.86126
       H    14.41562    8.70050   -7.24134
       O    13.60866    8.83143   -7.79492
      H1    13.28484    7.98003   -8.05977
       H    11.26328   13.24183   -5.27514
       O    11.98573   13.39684   -4.59549
      H1    11.99000   12.52869   -4.09360
       H     9.40512    7.59502   -8.77009
       O    10.22985    8.08779   -8.86453
      H1     9.96958    8.89661   -8.39624
       H    17.32898   13.21251   -4.50142
       O    17.21791   13.63840   -3.63041
      H1    16.44679   13.08399   -3.36497
       H    14.82688    3.53243   -5.77640
       O    14.27087    3.02221   -5.07873
      H1    13.81111    3.79457   -4.81922
       H    17.41192    3.85541   -2.37286
       O    18.27083    4.30854   -2.21838
      H1    17.99690    5.26405   -2.24650
       H    17.03265   12.34294   -7.11095
       O    17.79492   12.86194   -6.88167
      H1    17.35722   13.75207   -6.96315
       H    16.74953   13.02385  -11.37083
       O    16.03499   12.46561  -11.64786
      H1    15.46829   13.07437  -12.19834
       H    13.69152    9.02065  -11.07455
       O    14.47604    9.20661  -10.52657
      H1    14.22073    8.94098   -9.60856
       H    16.01312    7.60022   -0.74547
       O    15.30230    6.90535   -0.69415
      H1    15.79606    6.31588   -0.08512
       H    18.58870   16.65572  -10.17882
       O    17.64980   16.74329   -9.94311
      H1    17.24469   16.49244  -10.75285
       H    18.38721   11.26735   -6.13237
       O    18.82712   10.52340   -5.70439
      H1    18.80786    9.95688   -6.49429
       H    10.39904    7.00584  -10.61139
       O    10.45490    6.18980  -11.17763
      H1    10.54769    6.63380  -12.04756
       H    15.53503    8.71516  -14.81070
       O    14.82499    8.17160  -15.23298
      H1    14.70766    8.51569  -16.11300
       H    19.00826    8.46449  -13.19931
       O    18.20316    8.15031  -13.65269
      H1    17.44937    8.04369  -12.98920
       H    10.83363   11.98225  -12.04180
       O    11.59134   12.19460  -12.63204
      H1    11.38002   13.16542  -12.59616
       H    16.82696   15.47330   -6.47260
       O    16.23390   15.00621   -7.16689
      H1    15.52288   14.66970   -6.65202
       H     9.70687    5.41403   -8.09970
       O    10.56931    5.20883   -7.72063
      H1    10.32520    4.69875   -6.93522
       H    18.41281   12.08752   -1.08863
       O    18.92819   12.20015   -1.86257
      H1    18.36607   12.68397   -2.52998
       H    15.57255    8.51028  -11.85840
       O    15.97405    7.71934  -12.13969
      H1    15.23652    7.15824  -12.41496
       H    10.60409   12.07883   -7.68756
       O     9.68524   11.74217   -7.51740
      H1     9.37852   11.38337   -8.40390
       H    11.43555    4.54563  -11.42276
       O    11.90932    3.71963  -11.44821
      H1    12.82798    3.90156  -11.61285
       H    13.89576   10.18731  -13.35772
       O    13.16602   10.07650  -12.68883
      H1    12.71827   10.98992  -12.60260
       H    13.04642   14.68778   -5.22290
       O    13.81096   15.19584   -5.47418
      H1    13.49538   15.65532   -6.31166
       H    18.76880   10.67309   -2.51851
       O    18.61493    9.88700   -3.05109
      H1    18.55701   10.26818   -3.92462
       H    14.73433   12.05577  -10.33673
       O    14.20918   11.64531   -9.61493
      H1    14.38852   10.71438   -9.93704
       H    17.39742    8.33249   -7.74824
       O    17.79743    8.86309   -8.39172
      H1    18.63709    8.40021   -8.45797
       H    12.69126    9.57270   -6.55869
       O    12.23820    9.81711   -5.73188
      H1    12.16399   10.79162   -5.73790
       H    16.47982    4.61977  -10.13706
       O    16.71984    4.09174  -10.94367
      H1    16.82815    4.75941  -11.64275
       H    14.53652    9.60619   -5.03384
       O    15.29107   10.11032   -4.77324
      H1    15.18833   10.75408   -5.49957
       H    17.94757   14.63686   -9.83080
       O    18.07170   13.81015  -10.30799
      H1    18.95046   13.88560  -10.77161
       H    19.50066    6.55883   -3.98975
       O    18.67126    7.02470   -4.16489
      H1    18.68457    7.88206   -3.69280
       H    19.30540    6.42937   -9.93785
       O    18.82581    6.03795  -10.66953
      H1    18.36481    5.25860  -10.34226
       H    14.11149    7.86094   -3.76879
       O    14.87139    7.28305   -4.02696
      H1    15.52968    7.40977   -3.34003
       H    13.92601   11.70494  -15.00052
       O    13.11030   12.18843  -15.12346
      H1    12.56585   11.87683  -14.37869

