180
frame 0 | Written by MDAnalysis XYZWriter (release 2.4.3)
       H    10.34647  -15.52530   -2.71313
       O    10.73512  -15.66302   -1.87425
      H1    11.01453  -16.57268   -1.93084
       H    -5.51068  -15.74288   -2.67844
       O    -4.84601  -16.30465   -3.03736
      H1    -4.12719  -15.58677   -3.01269
       H     3.31073  -17.62890   -1.93134
       O     3.49057  -18.44391   -1.48627
      H1     3.63184  -18.21394   -0.51614
       H     5.73250  -14.80019   -4.18527
       O     5.03164  -14.16858   -4.29330
      H1     5.51500  -13.33709   -4.41482
       H     8.00473  -13.21209    2.37071
       O     8.95168  -12.93408    2.52046
      H1     8.92967  -11.91518    2.75436
       H    -0.78229  -13.19368    1.62709
       O    -1.60802  -13.63623    1.64013
      H1    -2.02972  -13.21021    2.42595
       H    -3.50770  -16.88985   -5.71209
       O    -3.24799  -15.96779   -5.75549
      H1    -2.91856  -15.77500   -4.90383
       H     0.42663  -12.75344   -4.38498
       O     1.28650  -13.16860   -4.37808
      H1     0.91714  -14.05290   -4.21322
       H     1.87424  -15.11866  -10.26591
       O     0.93040  -15.02547   -9.99938
      H1     1.07675  -14.73924   -9.01671
       H     5.57889  -17.19377   -8.87289
       O     5.43619  -16.94175   -9.79947
      H1     4.98542  -16.03127   -9.73184
       H     6.43652  -19.57856   -8.42554
       O     7.13072  -18.95980   -8.34235
      H1     7.63602  -19.25137   -9.16760
       H    -2.57109  -14.15164   -2.25416
       O    -2.78411  -14.39739   -3.19076
      H1    -2.67058  -13.51400   -3.55000
       H     2.60603  -19.08201   -4.53423
       O     1.70179  -18.88466   -4.76278
      H1     1.69623  -18.46877   -5.64297
       H     9.50566  -15.84651   -5.01057
       O    10.43083  -16.01555   -5.25274
      H1    10.96539  -15.21455   -5.05122
       H     1.65384  -12.38126    2.15888
       O     0.67531  -12.35171    1.97166
      H1     0.42694  -11.49897    1.48496
       H    -0.68697  -16.68143   -3.44835
       O    -0.33751  -15.85696   -3.78941
      H1    -1.17581  -15.34328   -3.66484
       H     3.89067  -19.94966    4.58548
       O     3.44628  -19.36622    5.27943
      H1     4.15272  -19.34266    5.93693
       H    -4.57046  -18.10965   -1.54522
       O    -4.76533  -19.01286   -1.81991
      H1    -5.44283  -18.76181   -2.40919
       H     3.61665  -12.25354   -8.62817
       O     2.69255  -12.06919   -8.34363
      H1     2.83319  -11.95778   -7.38716
       H    10.76764  -16.86303    0.76720
       O    10.40584  -16.06338    1.22450
      H1    10.32641  -15.36082    0.54225
       H     7.89025  -16.41252   -3.86365
       O     7.72131  -15.83803   -4.65379
      H1     7.25609  -16.50745   -5.29238
       H     2.05173  -15.87018   -2.83754
       O     2.97010  -16.08275   -2.76572
      H1     3.37748  -15.98509   -3.67809
       H     4.11195  -15.33569   -0.76646
       O     4.89289  -15.57613   -0.24329
      H1     5.39627  -14.78378    0.01075
       H     9.57276  -16.71206    2.95720
       O     8.83247  -17.28262    3.12767
      H1     8.38988  -17.33174    2.30737
       H     7.42898  -17.04596   -0.75208
       O     7.46844  -16.46155   -1.48038
      H1     6.81639  -15.83084   -1.19042
       H     3.29146  -17.79740    4.66425
       O     3.16187  -16.84799    4.58461
      H1     3.16890  -16.53475    5.49857
       H    -1.73173  -19.53064    0.91631
       O    -2.23744  -19.28457    1.77386
      H1    -1.53480  -19.09258    2.36932
       H     1.97195  -13.69083   -7.66406
       O     1.75689  -14.61275   -7.54226
      H1     0.87128  -14.46763   -7.24680
       H    -1.25100  -13.08412   -5.43943
       O    -1.35023  -12.51120   -4.65043
      H1    -1.92012  -11.80549   -4.90608
       H     3.19264  -10.57874    1.60978
       O     3.53009  -11.38433    2.03320
      H1     4.18138  -11.71760    1.37399
       H     8.19525  -14.26280   -7.20247
       O     8.08424  -15.10560   -7.58018
      H1     7.36875  -15.49551   -7.07489
       H    -1.28859  -12.10195   -0.79862
       O    -0.37486  -11.93711   -1.06539
      H1    -0.13937  -12.86612   -1.04876
       H     4.60445  -16.56957    2.12302
       O     5.12164  -16.37403    2.89551
      H1     4.42972  -16.56171    3.58090
       H    -0.35798  -14.19449    4.49593
       O     0.26386  -13.45836    4.52797
      H1     0.24378  -12.88634    3.69868
       H     5.54524  -12.01942   -0.02349
       O     5.05763  -12.82131    0.33466
      H1     4.49027  -13.05337   -0.39828
       H    -0.18365  -17.69837   -9.77246
       O    -0.70434  -17.33807   -9.04868
      H1    -0.13330  -16.61416   -8.83538
       H    -3.69437  -13.43399   -0.34842
       O    -2.79078  -13.49288   -0.71576
      H1    -2.27651  -13.53576    0.08948
       H     3.97159  -10.80251   -5.00270
       O     3.16746  -10.69626   -5.51259
      H1     2.45316  -11.12865   -5.04946
       H     4.37480  -15.63044   -5.37511
       O     3.62929  -16.12887   -5.85920
      H1     3.04966  -15.41598   -6.15677
       H     5.97285  -13.45528    1.86895
       O     6.47995  -13.96948    2.49685
      H1     5.99125  -14.78729    2.60329
       H     0.39917  -17.42704    0.49023
       O     0.74662  -17.13531   -0.40972
      H1     0.21502  -17.71047   -0.96937
       H     9.60472  -12.87088   -3.29943
       O     9.07890  -12.52422   -2.59494
      H1     8.10825  -12.62367   -2.93333
       H     6.18662  -16.74784    4.29760
       O     6.82949  -16.84806    5.02122
      H1     7.58524  -17.09488    4.38086
       H    10.54935  -18.80946   -3.90313
       O     9.58145  -18.81189   -3.84790
      H1     9.44173  -19.36460   -4.61331
       H     1.55842  -14.31928    0.75835
       O     1.28444  -14.46612   -0.16938
      H1     1.05788  -15.42399   -0.13576
       H    -2.51790  -17.19504    0.78278
       O    -3.22021  -16.54158    1.00488
      H1    -3.54599  -16.94797    1.83576
       H     6.23788   -9.40623   -3.10221
       O     5.48274   -9.90542   -3.46333
      H1     4.86662   -9.72760   -2.74825
       H     9.49256  -13.21800    0.54845
       O    10.07777  -13.33278   -0.20005
      H1     9.44540  -13.25995   -0.95033
       H    -1.45980  -15.06596   -6.34782
       O    -1.03329  -14.37796   -6.85903
      H1    -1.81922  -14.02597   -7.29405
       H     6.67131  -11.41648   -4.53108
       O     6.89520  -12.30646   -4.32608
      H1     7.60659  -12.49556   -4.91241
       H     1.71461  -18.60620    3.07636
       O     1.17090  -17.82349    3.04879
      H1     1.67919  -17.16054    3.55927
       H     4.00137  -12.77876   -2.81814
       O     3.43352  -12.11819   -2.40489
      H1     2.66553  -12.64191   -2.19553
       H     6.57698  -17.66887   -7.17685
       O     6.11491  -16.92426   -6.77105
      H1     5.20241  -17.19864   -6.68927
       H    -2.48717  -16.35340    3.81247
       O    -1.67103  -15.81850    3.91776
      H1    -1.42637  -15.49574    3.04014
       H     0.12613  -18.52896   -8.00522
       O     0.52871  -19.25883   -7.49808
      H1     1.07205  -19.70431   -8.15512
       H    -0.38531  -19.73646    4.54592
       O    -0.73334  -18.79858    4.68529
      H1    -0.03512  -18.24584    4.26590
       H    -1.38485  -18.95564   -3.64321
       O    -0.57972  -18.54685   -3.23224
      H1     0.04442  -18.76509   -3.96049
       H     5.17125  -18.20262   -2.32289
       O     5.95300  -18.22516   -2.90176
      H1     6.67068  -17.75138   -2.49649
       H     8.28470  -18.50572    0.38241
       O     7.45292  -18.19359    0.79910
      H1     6.93293  -18.99289    0.63635
       H    10.61297  -18.61235   -0.08752
       O    11.43657  -18.26974    0.39770
      H1    12.00474  -18.26955   -0.42368

