180
frame 6 | Written by MDAnalysis XYZWriter (release 2.4.3)
       H   -12.89273    4.32741  -10.77497
       O   -13.39406    3.61306  -11.19956
      H1   -14.15341    4.05137  -11.66479
       H   -11.67181   -6.39072  -18.51419
       O   -11.10413   -6.97647  -18.07320
      H1   -11.33829   -7.80630  -18.47718
       H    -3.08793    1.94744  -17.77791
       O    -2.39767    1.82918  -17.13095
      H1    -2.09558    0.95242  -17.38274
       H    -7.41901    0.90423  -18.19948
       O    -7.63046    1.06824  -17.28288
      H1    -8.03719    0.16470  -17.10557
       H   -15.74944    3.49640  -12.54904
       O   -15.87139    2.56988  -12.29165
      H1   -16.51782    2.67872  -11.54520
       H   -17.05491    0.54288  -18.52385
       O   -16.73034    1.12094  -19.21940
      H1   -17.32767    0.85955  -19.94659
       H   -16.32476   -3.54098  -14.96858
       O   -17.18866   -3.36698  -15.43425
      H1   -17.79821   -3.26854  -14.61618
       H   -13.09314   -1.53901  -16.04809
       O   -13.26371   -1.06342  -16.83519
      H1   -14.12416   -0.64660  -16.69267
       H    -5.43416    1.52584  -14.44425
       O    -6.07183    0.86150  -14.72209
      H1    -6.27090    1.08421  -15.67375
       H    -6.15606    4.79350  -15.53910
       O    -6.26539    5.49025  -14.85039
      H1    -7.01125    5.17825  -14.31317
       H    -5.73755   -1.86588  -13.87265
       O    -6.48255   -1.74958  -14.52215
      H1    -6.24985   -0.80056  -14.65350
       H   -12.63727   -3.17364   -9.59745
       O   -12.10876   -2.36718   -9.82971
      H1   -12.02472   -1.99823   -8.93195
       H    -4.64314   -1.37250  -15.85767
       O    -4.33486   -1.51118  -16.72994
      H1    -5.08157   -1.80457  -17.21547
       H   -10.30628   -6.00775  -13.87936
       O   -10.70662   -6.85554  -13.61611
      H1   -11.21194   -7.04667  -14.42235
       H   -14.86332   -3.28359  -18.05225
       O   -15.76923   -3.41000  -18.28903
      H1   -16.25188   -3.91266  -17.56981
       H   -10.08910   -4.24107  -10.94170
       O    -9.14238   -3.96031  -10.82251
      H1    -9.17270   -3.41611  -10.04658
       H   -15.18461    6.11789  -12.92318
       O   -15.21640    5.14585  -13.13533
      H1   -14.91652    5.18290  -14.08778
       H   -17.05028   -0.74207  -12.25276
       O   -17.36894   -0.35198  -13.09337
      H1   -16.60000   -0.37815  -13.66589
       H    -7.33858   -4.27925  -13.35485
       O    -6.54581   -4.57260  -12.90060
      H1    -6.90878   -5.35842  -12.35821
       H   -12.03559   -3.77974  -11.17200
       O   -11.84591   -4.19085  -12.02046
      H1   -12.58674   -4.81472  -12.01823
       H    -7.37518    8.19693  -15.00213
       O    -6.72784    7.95868  -15.68569
      H1    -6.82378    6.99067  -15.60449
       H    -7.31559    0.19460  -10.67749
       O    -8.23048    0.30834  -10.96005
      H1    -8.27164   -0.45999  -11.51391
       H    -8.46669   -2.73169  -12.01830
       O    -8.46485   -1.93582  -12.58793
      H1    -7.73067   -1.98166  -13.17989
       H   -13.36315   -0.93058  -19.84265
       O   -13.17905   -1.88153  -19.44422
      H1   -13.31774   -1.70269  -18.46893
       H    -8.64304    3.43059  -12.91207
       O    -8.24292    4.31925  -12.92775
      H1    -9.09678    4.83332  -13.04008
       H   -11.11724    7.99879  -19.19359
       O   -10.41501    8.06988  -18.55442
      H1    -9.78561    7.42351  -18.96071
       H   -11.74040   -0.04671  -12.59526
       O   -12.45711    0.37075  -12.00442
      H1   -12.14159    1.29720  -11.91648
       H    -9.83257   -4.10822  -14.44273
       O    -8.97257   -4.50783  -14.45435
      H1    -8.68470   -4.39498  -15.38625
       H    -7.71133    8.10560  -18.80479
       O    -7.71556    7.28495  -18.22886
      H1    -7.52793    7.61547  -17.34418
       H   -14.00873   -0.35463  -11.04148
       O   -14.61449   -0.82068  -10.44841
      H1   -13.96950   -1.21912   -9.82688
       H   -17.12672    2.37646  -15.39945
       O   -17.28437    1.59403  -14.84879
      H1   -17.33679    1.99569  -13.97027
       H   -12.43123    4.16012  -18.18692
       O   -12.36482    5.04810  -17.87161
      H1   -12.99920    5.07636  -17.15685
       H   -14.23354    3.50905  -15.86349
       O   -14.56047    4.41205  -16.01062
      H1   -15.40856    4.32874  -16.41185
       H    -8.28405    1.44743  -12.67516
       O    -8.32351    1.42184  -13.59861
      H1    -7.39675    1.25376  -13.81918
       H   -11.28139    0.37866  -17.63852
       O   -10.92329    1.18717  -17.30514
      H1    -9.96294    1.01429  -17.15047
       H   -10.46795    2.03044   -8.43247
       O    -9.78802    2.40494   -9.04503
      H1    -9.88596    1.75813   -9.76171
       H   -13.98944   -3.94685  -14.42576
       O   -14.88592   -4.02105  -14.11686
      H1   -14.89572   -5.01319  -14.07202
       H    -9.48378   -7.18537  -18.20919
       O    -8.50388   -7.46753  -18.26211
      H1    -8.32181   -7.60132  -17.34158
       H   -10.01298   -2.48624  -17.12126
       O   -10.60996   -3.16281  -17.45883
      H1   -10.05143   -3.93501  -17.63278
       H    -6.72946    4.25341  -17.64177
       O    -5.82337    3.98715  -17.29968
      H1    -5.24592    4.65039  -17.68209
       H    -9.98672    6.66024  -14.27736
       O   -10.17164    6.14248  -13.45511
      H1   -10.79967    5.44424  -13.79402
       H   -10.29780   -1.06857  -13.29129
       O   -10.65284   -0.40717  -13.84289
      H1    -9.92583    0.28734  -13.93644
       H   -18.10656    3.25913  -17.47043
       O   -17.10071    3.18632  -17.55506
      H1   -16.96921    2.48250  -18.22748
       H   -17.88454   -3.71661  -19.19460
       O   -18.76391   -4.12647  -19.12992
      H1   -19.02035   -3.88126  -18.17448
       H    -8.64132    3.29115  -17.13941
       O    -8.58296    4.01842  -17.79375
      H1    -9.22669    4.68201  -17.47475
       H   -12.20143   -3.74561  -13.64339
       O   -12.18064   -3.32469  -14.53444
      H1   -12.45193   -4.01507  -15.21468
       H   -13.59220    0.38199  -13.33250
       O   -14.48813    0.58967  -13.74548
      H1   -14.91673    1.15107  -13.05478
       H    -9.42184   -1.13949  -15.41682
       O    -8.77052   -1.33225  -16.06474
      H1    -8.03162   -1.63048  -15.53860
       H   -11.02528    5.60525  -16.88149
       O   -10.18148    5.80854  -16.48717
      H1    -9.88931    6.58224  -17.06525
       H   -17.45967   -6.51276  -16.20894
       O   -16.60264   -6.01247  -16.22711
      H1   -16.88056   -5.29915  -15.66914
       H   -12.48315    3.25243  -14.21405
       O   -12.06412    3.91169  -13.59495
      H1   -12.45332    3.67767  -12.75118
       H   -13.07899   -5.01291  -17.39186
       O   -13.45542   -5.04549  -16.49981
      H1   -13.84742   -5.96516  -16.37753
       H    -7.28056   -3.49957  -17.79011
       O    -6.67636   -3.12004  -18.41842
      H1    -6.35369   -3.75552  -19.06816
       H   -13.69104    1.52471  -15.03347
       O   -13.13310    2.13869  -15.51243
      H1   -12.30653    1.66010  -15.67423
       H   -15.85702   -5.41441  -11.52500
       O   -14.89729   -5.14633  -11.65143
      H1   -14.94903   -4.47239  -12.29130
       H    -7.22752   -5.19040  -16.68649
       O    -8.10246   -4.94933  -17.13442
      H1    -8.16474   -5.59744  -17.86922
       H   -16.84320   -1.41689  -16.61218
       O   -16.39348   -0.55777  -16.82520
      H1   -16.43843   -0.13195  -15.93803
       H   -19.54172   -0.03769  -17.16726
       O   -19.45098   -0.35214  -16.20075
      H1   -18.50965   -0.13519  -15.94042
       H   -11.36562   -8.47374  -16.11502
       O   -12.21975   -7.98685  -15.99633
      H1   -12.19893   -7.30989  -16.66778
       H    -5.31831    2.51650  -18.39658
       O    -4.93928    1.64799  -18.64868
      H1    -5.35065    1.50519  -19.50550

