180
frame 146 | Written by MDAnalysis XYZWriter (release 2.4.3)
       H    14.10271   16.90958   18.52671
       O    14.02776   16.62677   17.57798
      H1    13.75086   17.52567   17.17091
       H    16.23930    7.01618    7.23136
       O    15.85777    7.71502    7.80735
      H1    16.52747    8.07701    8.40795
       H    18.00666    5.96301   12.80344
       O    17.43288    5.26702   13.02870
      H1    16.70938    5.44184   12.38841
       H    11.96457    9.90057   19.14307
       O    11.40505   10.45206   19.65315
      H1    10.62807    9.90148   19.60086
       H    17.93901    8.98948    6.47751
       O    18.48691    9.59341    7.02558
      H1    19.31740    9.10901    6.94977
       H    12.54171   15.00501   16.48270
       O    12.21809   14.96523   15.57997
      H1    12.10970   15.87805   15.31202
       H    12.40240    7.17570   14.25291
       O    12.30531    7.52552   15.21300
      H1    11.33967    7.33796   15.31589
       H    11.21355   11.07675   17.98780
       O    11.35964   11.14219   17.00695
      H1    12.34306   10.87035   17.00561
       H    10.89729   11.55305   10.57604
       O    11.75910   11.98031   10.86778
      H1    11.41469   12.44876   11.67699
       H    10.13026   12.66261   17.92373
       O     9.34785   13.21866   18.23432
      H1     9.46677   14.05850   17.74730
       H    16.92803   13.70713   15.31122
       O    16.36506   13.03911   15.58012
      H1    17.04582   12.30401   15.39214
       H    16.93744    9.72074   18.96953
       O    16.74715    9.78728   19.93049
      H1    16.93261   10.76944   20.19330
       H    14.83316   10.37346   16.75596
       O    13.91276   10.34305   16.36953
      H1    14.26170   10.09703   15.45310
       H    19.24092   18.84496    7.23896
       O    18.78233   18.02641    7.13882
      H1    18.65474   17.77736    8.07527
       H    12.73676    8.21735   17.15111
       O    12.64569    8.24953   18.13449
      H1    13.49358    8.65285   18.43085
       H    14.63582   13.20744   14.42391
       O    13.93491   12.80277   13.94299
      H1    13.14782   13.31460   14.26098
       H    15.20989   13.85705   10.55582
       O    16.01461   13.42932   10.53823
      H1    15.85826   12.64875   11.04459
       H    18.78588   15.60414   18.99742
       O    18.13667   14.99796   19.36598
      H1    18.50322   14.11158   19.15499
       H    14.90025   18.14647   11.76485
       O    15.46687   18.17248   10.94982
      H1    15.10246   18.88972   10.42723
       H    18.81643    5.65862   18.46908
       O    19.36028    5.57884   17.72963
      H1    20.06364    6.16293   17.95922
       H    16.91003   18.91168   17.10257
       O    16.64557   19.44412   16.33408
      H1    15.87498   18.98242   15.88986
       H    13.17879   17.13077   12.66973
       O    13.67462   17.91267   12.87036
      H1    13.02448   18.58844   12.69027
       H    16.34335    6.47384   17.45105
       O    16.70216    7.08160   16.80789
      H1    17.30742    6.45925   16.41080
       H    15.17734   12.26702    7.75780
       O    15.42105   11.46000    8.19340
      H1    15.74380   11.85179    9.01445
       H    17.64104    9.26764   13.73775
       O    17.86775    9.33648   12.85716
      H1    18.41055   10.17853   12.92252
       H    17.27404   17.82541   10.09266
       O    18.15221   17.44713    9.90826
      H1    18.02158   16.55275    9.69533
       H    13.58657    8.75017    8.06717
       O    13.31750    9.51063    8.66653
      H1    14.11039   10.06350    8.73941
       H    17.18968    9.54901   10.12845
       O    17.48699    8.99949    9.41544
      H1    17.95272    9.58785    8.75337
       H    12.85253   18.26986    7.55860
       O    12.84843   17.31217    7.58446
      H1    13.68752   17.10058    8.11851
       H    12.96342   13.69319    7.43636
       O    13.86911   13.71751    7.11540
      H1    14.24867   14.47634    7.66219
       H    14.71990   12.72207   17.86674
       O    15.60545   12.80448   18.24425
      H1    16.10120   12.85530   17.48010
       H    10.64802   18.60186    9.96410
       O    10.04707   19.14702   10.52624
      H1    10.65369   19.61240   11.09833
       H    17.06089   17.69849   18.40446
       O    16.84236   18.52369   18.89426
      H1    17.77207   18.81696   19.18163
       H    16.92301   18.35966    6.91460
       O    16.06697   18.43028    6.55600
      H1    15.59939   17.73133    7.04042
       H     9.79578   16.03606   13.35448
       O    10.11025   16.90087   12.92971
      H1    10.50814   16.50679   12.09990
       H    14.75130   10.83540   13.73338
       O    15.00025    9.89787   13.89917
      H1    14.31865    9.43368   13.34853
       H    18.06945   15.43801   14.43413
       O    18.06651   15.13198   15.34401
      H1    17.42513   15.67165   15.82388
       H    13.20462    9.47847   10.46632
       O    12.91531    9.37290   11.38325
      H1    12.37950   10.23558   11.52999
       H    17.15219   15.44039   17.82508
       O    16.82167   16.26784   17.38036
      H1    15.84138   16.04981   17.32244
       H    19.37659   13.51480    5.78452
       O    18.73392   13.19975    5.04847
      H1    19.11971   13.75581    4.33178
       H     7.33332   13.74599   12.00737
       O     7.68247   14.23317   12.77846
      H1     8.57124   13.91956   12.76015
       H    12.56230   14.75736   11.32972
       O    12.56741   15.19458   12.18790
      H1    13.17516   14.60094   12.69403
       H    16.89526    8.75258   17.10734
       O    16.72894    9.74499   17.28721
      H1    17.37349   10.16087   16.72903
       H    18.56461    7.61071    9.96393
       O    19.13172    7.32994   10.76080
      H1    18.71107    7.84395   11.48189
       H    10.60813    9.60744   14.04191
       O    11.25161   10.20206   14.44023
      H1    11.46483    9.62349   15.16400
       H    18.84937   14.82357   11.79458
       O    18.60833   15.32843   12.57277
      H1    17.77316   15.69308   12.30946
       H    15.31923   10.64232    6.76565
       O    15.31721    9.95817    6.03199
      H1    15.24023    9.14471    6.55127
       H    11.63457   15.16115    9.79706
       O    12.27211   14.44303    9.75300
      H1    11.91047   13.52269    9.70662
       H    10.07690   16.95414    8.82080
       O    10.93509   16.80694    9.27160
      H1    11.51541   16.89852    8.47427
       H    11.94577   16.34468   18.62625
       O    11.18695   16.72489   19.11758
      H1    11.44157   17.63924   19.40323
       H     8.66581   10.91750   13.83567
       O     8.82046   11.15028   14.72616
      H1     9.75348   10.91036   14.86171
       H    19.22458   10.38220   15.73795
       O    18.62586   11.18486   15.70239
      H1    19.02331   11.70013   16.44873
       H     8.72300   16.42068   16.97026
       O     8.89984   16.02217   17.82219
      H1     9.65334   16.63659   18.02991
       H    10.34931   18.32217   15.73361
       O    10.96851   17.76441   15.23820
      H1    10.46475   17.52084   14.44340
       H    14.90853   16.17902    6.87034
       O    15.23450   16.08901    7.77239
      H1    16.17666   15.79307    7.69101
       H    13.95555   18.39013   14.55164
       O    14.22551   18.69087   15.39468
      H1    13.36995   18.98527   15.77647
       H    11.47708   11.97574   13.95935
       O    11.08734   12.70904   13.48283
      H1    10.50460   12.93355   14.20199
       H     9.34453   14.80261   15.80198
       O     9.69622   14.44147   14.99706
      H1    10.62293   14.50241   15.19174
       H    14.80425   10.89359   11.23141
       O    15.74117   10.74638   11.14143
      H1    16.08194   10.34510   11.96628
       H    17.26474   14.20534    8.92352
       O    17.79500   14.89984    8.54332
      H1    18.54122   14.53620    8.05714

