180
frame 3 | Written by MDAnalysis XYZWriter (release 2.4.3)
       H    -2.39029    4.02717    4.54352
       O    -2.92436    4.32171    3.78303
      H1    -3.67843    4.73859    4.33351
       H    -8.20556    1.38867    8.65534
       O    -7.70908    1.30574    9.49931
      H1    -8.38195    1.71376   10.13088
       H    -3.49258   -1.38364    9.87971
       O    -3.91441   -2.05627    9.34836
      H1    -3.18472   -2.60907    9.01711
       H   -14.45479    1.26607    3.03156
       O   -14.32138    1.39585    4.00143
      H1   -14.03048    2.34167    3.97426
       H    -9.59747   -1.59995    7.47466
       O   -10.48211   -1.59640    7.13294
      H1   -10.46131   -2.58146    6.79895
       H    -6.99814    8.52557    7.61243
       O    -6.72573    9.34599    7.15914
      H1    -7.52770    9.87596    7.46123
       H    -3.69300    3.24507    7.78146
       O    -3.69915    4.17895    7.99056
      H1    -4.38338    4.26982    8.66638
       H   -10.68769    3.97361   14.03380
       O   -10.84242    4.51898   13.25404
      H1   -11.30414    5.25048   13.72213
       H   -10.94862    2.35368    4.37546
       O   -10.91879    1.60120    5.00143
      H1   -11.54967    0.97748    4.54163
       H   -12.71727   -0.79719   10.52369
       O   -11.94617   -0.93017    9.91777
      H1   -12.47387   -1.20559    9.17566
       H    -6.36379    4.14569    9.77270
       O    -5.91003    3.37975    9.40582
      H1    -6.66205    2.73099    9.43054
       H    -9.86890    4.98165    9.26343
       O    -9.37447    5.69873    9.52616
      H1    -8.95399    5.47339   10.42239
       H    -8.32849    3.29388   14.45620
       O    -7.80680    2.70020   13.88239
      H1    -7.36306    2.02830   14.39974
       H   -11.33829    3.24895    7.96455
       O   -11.23740    4.22107    7.89566
      H1   -10.96658    4.32960    6.95580
       H    -8.27673    2.83130    6.86937
       O    -8.87540    2.11360    7.10965
      H1    -9.61055    2.17100    6.45465
       H    -5.58164   -1.05950    3.63183
       O    -5.24100   -1.68694    2.99800
      H1    -5.53165   -1.30115    2.14331
       H    -4.89677    1.12094    7.07712
       O    -4.63073    1.99717    6.76726
      H1    -5.16204    2.47078    7.42964
       H   -11.66065    9.47440    7.52416
       O   -10.90264    8.96303    7.90355
      H1   -10.85714    8.17890    7.31036
       H   -12.01375    0.58967    8.37922
       O   -12.01122    1.44399    7.86774
      H1   -11.72421    1.10961    7.02485
       H    -8.83246   -2.58422    3.43626
       O    -8.23800   -1.88048    3.20481
      H1    -7.36158   -2.29368    3.17376
       H    -7.54697    4.30075    5.71729
       O    -6.95065    4.27165    6.51446
      H1    -6.14633    4.53140    6.04237
       H    -5.83364    6.16497    4.52744
       O    -5.42794    5.30439    4.47973
      H1    -5.58867    5.12534    3.52387
       H   -11.50080    0.03102   12.59751
       O   -11.32833   -0.81867   13.08547
      H1   -10.42376   -1.05552   12.76434
       H   -10.83798    5.52256    2.72515
       O   -10.00403    5.25058    2.33498
      H1   -10.31680    4.39191    1.99930
       H    -6.90490    2.42050    3.71817
       O    -7.83933    2.50982    3.52789
      H1    -8.06392    1.65459    4.00214
       H    -9.48541   -1.28495    1.52239
       O    -9.17975   -0.61672    0.86714
      H1    -8.22836   -0.92767    0.76416
       H    -8.91634    5.47412   12.42315
       O    -8.17713    5.11088   11.89926
      H1    -8.48755    4.20684   11.67963
       H    -6.63842    8.39137    5.53600
       O    -6.48311    7.82250    4.78492
      H1    -5.72916    8.26466    4.41238
       H   -12.22632   -1.13831    4.40322
       O   -12.48069   -0.83280    5.29112
      H1   -11.78970   -1.18617    5.85547
       H    -8.66442    2.23543   12.45200
       O    -9.02511    2.42972   11.54155
      H1    -9.94415    2.13278   11.70120
       H   -11.23024    6.32487    9.62634
       O   -12.21944    6.13724    9.45573
      H1   -12.09677    5.57264    8.72993
       H   -14.97837    1.38939    6.26059
       O   -15.46191    1.43753    7.10976
      H1   -15.07566    2.25638    7.46797
       H    -5.11398   -1.73430    8.24444
       O    -5.91673   -1.27208    7.82295
      H1    -6.54639   -1.25717    8.56680
       H    -9.70240   -1.63900    9.06864
       O    -8.73158   -1.47018    9.14677
      H1    -8.55925   -0.59449    9.48357
       H    -7.24246    5.60106    7.37791
       O    -7.59679    6.42347    7.83765
      H1    -8.37999    6.01882    8.33558
       H    -9.85898    0.93205    1.77417
       O   -10.07830    1.83500    2.14986
      H1    -9.32229    2.08407    2.73118
       H    -7.97413   -2.76084   10.51870
       O    -7.94498   -3.62144   10.93324
      H1    -7.03738   -3.63836   11.21363
       H    -5.90830    1.14917   12.26102
       O    -6.56497    0.50093   11.95974
      H1    -6.93630    0.88559   11.15832
       H   -11.09437    2.46876   -0.84391
       O   -11.50512    2.65427   -0.03118
      H1   -10.88470    2.43056    0.66265
       H    -2.35132    1.12284    4.43774
       O    -2.55429    0.36601    3.85935
      H1    -3.54721    0.33746    4.05073
       H   -15.28603    4.44608    4.29850
       O   -14.37576    4.30598    4.07013
      H1   -14.23215    4.72954    3.24652
       H   -12.17807   -2.44251    2.80579
       O   -11.46697   -1.71601    2.75370
      H1   -11.86024   -1.14070    2.10445
       H    -9.65179   -4.56690    5.53215
       O    -9.95290   -4.32206    6.43932
      H1    -9.19649   -4.39018    6.96884
       H    -7.54831   -3.17368    8.14627
       O    -7.64503   -4.15221    8.02361
      H1    -7.32803   -4.49791    8.89859
       H    -9.87032    4.47511    4.11310
       O    -9.69723    4.60612    5.05958
      H1    -9.59939    5.59539    5.01163
       H   -11.54903   -2.60460   10.51340
       O   -11.67477   -3.51172   10.79110
      H1   -10.83140   -3.69497   11.30484
       H    -8.49562   -1.32820   13.49168
       O    -8.70189   -1.14254   12.56263
      H1    -7.97888   -0.50529   12.36670
       H   -11.25361    6.95356    4.65597
       O   -11.76849    7.05271    3.84749
      H1   -12.68242    6.83467    4.15092
       H   -14.04464    4.17003    7.38984
       O   -14.48741    3.68006    8.12531
      H1   -13.73326    3.42783    8.68203
       H    -5.91042    7.57216   11.96479
       O    -5.85525    6.66152   12.35901
      H1    -6.60126    6.12687   11.99231
       H   -12.42449    1.90851   11.40435
       O   -11.55345    1.84426   11.87752
      H1   -11.67699    2.69231   12.37623
       H    -6.92287   -0.08157    5.44018
       O    -6.06917   -0.57418    5.27690
      H1    -5.79687   -0.87555    6.16675
       H   -14.25629    6.34815    6.28602
       O   -13.39955    5.90537    5.98493
      H1   -13.78603    5.25747    5.38095
       H    -9.54762    7.87021    5.61815
       O    -9.98798    7.11677    6.04519
      H1    -9.14660    6.83686    6.51323
       H    -5.39784    0.95232    0.76683
       O    -6.29141    0.85457    0.48778
      H1    -6.77430    1.29498    1.16729
       H   -15.70431   -1.80376    5.75532
       O   -14.77025   -2.14142    5.69381
      H1   -14.13376   -1.41987    5.49967
       H    -9.52422    0.61393    4.87890
       O    -8.55742    0.33244    4.91691
      H1    -8.59070   -0.50968    4.44408
       H    -2.95520    1.89786    9.51968
       O    -3.66915    1.23665    9.66262
      H1    -4.37321    1.80865    9.96484
       H    -6.89660    3.91572    1.63637
       O    -6.05431    4.36737    1.82543
      H1    -5.47032    3.99172    1.19449
       H    -4.90076    1.88188    4.88014
       O    -4.84388    2.08909    3.94241
      H1    -4.19009    2.77526    3.83791

