180
frame 4 | Written by MDAnalysis XYZWriter (release 2.4.3)
       H   -13.27031    0.71106   -9.73464
       O   -12.72971    1.56476   -9.57698
      H1   -13.25231    2.14236  -10.15265
       H   -16.73434    6.88459   -3.83687
       O   -16.87576    6.36206   -3.08679
      H1   -16.04276    5.97879   -2.87538
       H    -6.60185    2.27456   -5.57208
       O    -6.61647    3.24445   -5.56352
      H1    -6.20978    3.42501   -6.41940
       H   -12.53135    5.16896   -9.11723
       O   -13.14388    5.31099   -8.34336
      H1   -13.78670    4.58847   -8.58144
       H    -7.50531    0.77061   -8.04288
       O    -7.95512   -0.08708   -8.28907
      H1    -8.72680   -0.21336   -7.67694
       H   -13.87936    1.10056   -6.78747
       O   -13.35608    1.94746   -6.92142
      H1   -13.15669    1.83480   -7.88143
       H    -5.03446    7.62072   -1.86688
       O    -5.85566    7.34417   -1.40818
      H1    -5.89697    7.71958   -0.51815
       H   -12.38062    8.80596   -1.98914
       O   -13.09103    8.25968   -2.26417
      H1   -13.36071    8.52142   -3.13072
       H   -11.27002   -2.31056    0.37455
       O   -11.19808   -1.42156   -0.04734
      H1   -10.34637   -1.04294    0.28358
       H   -11.99861    1.90681   -2.95974
       O   -12.30990    1.16925   -2.43813
      H1   -11.73956    0.42912   -2.77635
       H   -14.65281    1.96497    2.36796
       O   -14.36181    2.00969    3.27275
      H1   -14.49629    2.97803    3.54427
       H   -14.49567    4.21529   -0.38786
       O   -14.59532    3.52798    0.32233
      H1   -15.29144    3.88038    0.88308
       H   -13.88542    1.49716   -1.80374
       O   -14.84953    1.55761   -1.63721
      H1   -14.92233    1.96787   -0.80799
       H    -5.63597    3.63875   -2.52466
       O    -5.29684    2.91903   -3.03078
      H1    -5.58051    3.15804   -3.92397
       H   -13.22452    6.93676   -5.48843
       O   -12.55812    6.23996   -5.64605
      H1   -12.89126    5.91457   -6.56250
       H    -8.87670    9.23615   -6.97449
       O    -8.65165    8.91872   -6.08375
      H1    -9.09296    8.05637   -6.07622
       H   -15.10178    0.48223   -5.18649
       O   -14.99196   -0.03982   -5.99785
      H1   -14.05373   -0.38376   -5.92124
       H    -7.01867    4.74290   -0.88229
       O    -6.06244    4.70434   -1.15626
      H1    -5.89671    5.66461   -1.30602
       H    -9.47104    9.08395    2.71549
       O    -9.91661    9.31873    1.89892
      H1    -9.80833    8.61966    1.27753
       H   -12.70794    0.98018    0.93021
       O   -13.00232    0.08343    1.15170
      H1   -12.39599   -0.42824    0.55586
       H   -10.89786    5.64711    2.69721
       O   -10.24711    4.99769    2.42830
      H1   -10.71577    4.34312    1.94774
       H   -12.17829   10.29569   -6.52145
       O   -11.86897    9.62375   -5.92755
      H1   -11.34124   10.00429   -5.23819
       H   -16.40095   10.03519   -1.75800
       O   -15.99767    9.38127   -1.17016
      H1   -15.22388    9.13543   -1.66849
       H   -18.42905    5.51403   -6.54723
       O   -19.07590    5.99982   -6.02136
      H1   -18.92521    5.62317   -5.14232
       H   -17.20894    3.88756   -7.14335
       O   -17.84399    4.40066   -7.67657
      H1   -17.28293    5.01213   -8.08757
       H   -10.37069   -1.87318   -3.41134
       O    -9.93530   -1.56826   -4.21859
      H1    -9.15088   -1.17672   -3.76773
       H   -17.03029    7.40049   -6.49365
       O   -16.78211    7.65916   -5.60215
      H1   -17.48118    8.20322   -5.23367
       H    -8.86053    6.08033    2.01194
       O    -8.04597    6.61140    1.67713
      H1    -7.45305    5.84228    1.67898
       H    -7.35867    0.33541   -2.65787
       O    -7.62769   -0.37537   -3.23548
      H1    -7.07150   -1.08754   -2.88822
       H   -12.05290    4.92982   -3.90510
       O   -11.85247    4.00739   -3.64879
      H1   -10.91066    3.92024   -3.84432
       H   -14.98182    2.68642   -6.57703
       O   -15.95276    2.90657   -6.43031
      H1   -15.94788    2.92848   -5.45601
       H    -9.92339   -0.83722   -5.98258
       O   -10.10161   -0.52360   -6.88595
      H1   -10.27600    0.43959   -6.66440
       H    -9.71059    0.99386    2.60228
       O   -10.01345    1.93317    2.75052
      H1    -9.16783    2.34449    3.03545
       H   -17.77519   -1.29273   -1.94560
       O   -17.62266   -0.44641   -2.27268
      H1   -16.65993   -0.42038   -2.26043
       H   -12.52621   -2.29374   -6.52556
       O   -12.76352   -1.43148   -6.89150
      H1   -11.92339   -1.01737   -7.14314
       H    -6.37956    2.12103   -2.08066
       O    -7.14192    1.63359   -1.71854
      H1    -7.04224    1.52764   -0.78281
       H   -15.77345    6.61151    0.94518
       O   -15.14393    6.39758    1.62569
      H1   -14.38062    6.95426    1.40879
       H   -10.46344    7.00785   -5.03566
       O    -9.53494    6.72932   -5.02732
      H1    -9.45351    6.64292   -4.06210
       H   -10.56329    2.71185   -0.01884
       O   -11.36574    2.52086    0.53180
      H1   -10.87281    2.18541    1.30572
       H   -10.32671    3.16814   -8.77457
       O    -9.76355    2.99300   -9.53106
      H1    -9.78248    2.03520   -9.66059
       H    -8.42964    3.03932   -1.51103
       O    -8.70166    3.79228   -0.94293
      H1    -8.91410    4.42435   -1.66308
       H    -9.62683    9.68646   -4.16405
       O   -10.18936   10.42079   -3.93557
      H1   -10.48708   10.09751   -3.06798
       H   -10.67931    4.35043  -10.39330
       O   -11.50239    4.91972  -10.51467
      H1   -11.08162    5.69341  -10.88390
       H   -10.31758    2.92812   -5.99617
       O   -10.77181    2.23776   -6.49228
      H1   -11.70228    2.20653   -6.27387
       H   -15.82517    2.47768   -2.75302
       O   -16.11845    3.07564   -3.46597
      H1   -17.09444    2.84124   -3.43414
       H   -16.82351    6.13022   -0.87265
       O   -17.36654    6.56088   -0.18407
      H1   -17.99464    5.87959   -0.02881
       H    -8.88818    6.92630    0.16179
       O    -9.19284    7.57551   -0.48592
      H1    -8.38060    8.08844   -0.65687
       H    -6.27817    3.52270   -8.72954
       O    -6.92879    2.80595   -8.78716
      H1    -7.64269    3.29545   -9.21226
       H   -12.73109    7.15944    0.06763
       O   -12.68863    7.45664    0.98876
      H1   -12.90754    8.36152    0.81593
       H   -15.02329   11.54421   -5.65258
       O   -14.94421   11.52405   -4.64650
      H1   -14.61980   10.61397   -4.65744
       H   -17.88608    7.95066   -2.89365
       O   -18.50392    8.42612   -3.54735
      H1   -18.59596    9.33369   -3.15693
       H   -13.58520    8.99996   -5.59303
       O   -14.23543    8.61184   -4.98586
      H1   -15.05831    8.50785   -5.48951
       H   -11.88233    4.50914   -0.35912
       O   -11.90215    5.08277   -1.09852
      H1   -11.94000    4.53524   -1.91854
       H   -12.03647   -2.45072   -1.44442
       O   -12.17632   -2.90942   -2.29812
      H1   -13.12577   -2.68242   -2.48256
       H   -13.67705    5.74919   -2.03595
       O   -14.57708    5.31297   -1.93999
      H1   -14.50733    4.54354   -2.55119
       H   -10.29109    5.35280   -2.30673
       O    -9.50104    5.84507   -2.59415
      H1    -9.31783    6.46746   -1.89130
       H    -5.89526   -0.72035   -5.83032
       O    -6.00314    0.19211   -5.36353
      H1    -6.62955   -0.05434   -4.63336
       H   -12.02501   10.39556   -0.57198
       O   -11.44426   10.68018   -1.24389
      H1   -10.59549   10.73990   -0.73090
       H   -19.43195    4.69464   -2.88931
       O   -18.87173    4.63957   -3.64570
      H1   -18.08238    5.24384   -3.28088
       H    -8.36371    3.94438   -5.36041
       O    -9.26279    4.12682   -5.04978
      H1    -9.33528    5.07170   -5.23471

