180
frame 3 | Written by MDAnalysis XYZWriter (release 2.4.3)
       H    14.10910  -19.06861    2.55855
       O    14.65905  -18.35249    2.29405
      H1    14.08730  -17.55513    2.26701
       H     8.17480  -16.11335    4.57209
       O     8.03525  -15.54547    5.31686
      H1     8.79887  -15.01433    5.29260
       H    12.26421   -7.57239    2.72786
       O    12.73738   -7.98237    3.48707
      H1    13.49249   -8.35151    3.07993
       H     6.10280  -19.08913    6.04256
       O     5.79170  -18.36750    6.53956
      H1     6.52804  -18.22028    7.08815
       H     7.97257  -12.97467    3.25119
       O     8.95392  -12.88247    3.15597
      H1     9.06262  -11.87802    3.22236
       H     9.15860   -8.68201    9.73880
       O     9.57333   -7.89375    9.34662
      H1    10.18378   -7.64832   10.10363
       H     9.65153  -16.58608    7.74223
       O     8.72828  -16.56066    7.64937
      H1     8.53013  -16.34485    6.69832
       H    16.94215  -14.41597    7.75495
       O    16.81995  -13.57872    7.28280
      H1    16.81876  -13.85562    6.35135
       H    11.92919  -13.70249    1.22455
       O    12.86274  -13.53613    1.47708
      H1    12.72607  -12.85740    2.14892
       H     9.09381   -9.81866    4.27731
       O     8.65068  -10.17889    3.51658
      H1     7.70289  -10.12784    3.78772
       H    12.74204  -12.23308    0.05270
       O    12.39493  -11.40876   -0.20298
      H1    11.49961  -11.63732   -0.44251
       H     7.01571  -10.23890    7.39336
       O     6.10643  -10.37037    6.92011
      H1     6.44997  -10.94201    6.21260
       H    10.45271  -10.24831    9.68562
       O    11.04768  -10.51987    8.91272
      H1    10.36293  -10.76339    8.26634
       H    14.60780  -18.27492    5.57132
       O    14.12743  -19.09972    5.57599
      H1    14.44988  -19.43680    6.36502
       H    10.72043  -17.18742    0.25762
       O    10.22402  -16.82426    1.06961
      H1    10.07543  -15.88983    0.83208
       H    10.54817  -15.61402   11.55830
       O    11.36166  -15.63558   12.05634
      H1    11.96654  -15.22860   11.35186
       H    12.28676  -12.03081    8.82946
       O    12.95064  -12.61379    8.41188
      H1    13.54037  -11.93468    7.93418
       H     8.53448  -17.97011    0.62222
       O     7.95573  -18.61109    1.10550
      H1     7.36194  -18.87738    0.34413
       H    13.47715  -14.77983    2.51928
       O    13.73437  -15.66007    2.92877
      H1    12.85706  -16.03863    3.17737
       H    14.73963   -8.55038    0.64373
       O    13.80271   -8.68533    0.48451
      H1    13.56540   -9.55331    0.87638
       H    10.00037   -7.92115    5.65622
       O     9.78905   -8.88098    5.72953
      H1    10.73341   -9.10782    5.88870
       H    12.28684  -10.14014    2.86254
       O    12.67083  -11.00597    2.60455
      H1    12.38898  -11.00333    1.64135
       H     7.30718  -13.02801    6.48661
       O     7.83399  -12.32675    6.03603
      H1     8.11131  -12.68083    5.17041
       H     5.26525  -15.59112    1.60518
       O     5.40123  -15.88431    2.52292
      H1     4.58882  -16.25419    2.82953
       H     5.92729  -11.66644    3.28563
       O     5.38077  -10.91851    3.42756
      H1     5.43096  -10.53774    2.50691
       H    13.20052  -13.68255   10.24292
       O    13.26100  -14.61875   10.56265
      H1    13.76933  -14.51923   11.36873
       H    14.18048  -15.98127    5.75977
       O    14.97463  -16.37184    5.34184
      H1    14.62915  -16.19495    4.44128
       H    12.23379   -9.37773    7.17384
       O    12.50673   -9.34639    6.24218
      H1    12.97548   -8.49728    6.26985
       H    11.36013  -19.74712    3.56677
       O    12.10655  -19.13610    3.75476
      H1    12.62114  -19.65836    4.38935
       H    16.57980  -19.57602    5.23008
       O    17.07817  -18.78244    5.37890
      H1    16.44406  -18.04306    5.20498
       H     8.45497  -11.28653    7.11943
       O     8.64473  -10.52612    7.72463
      H1     8.85156   -9.79025    7.12904
       H     7.47808  -14.49477   10.91101
       O     6.59553  -14.76619   11.12341
      H1     6.80475  -14.94416   12.06636
       H    14.60430  -15.29107    7.86053
       O    14.90102  -15.70304    8.67735
      H1    14.24106  -15.23034    9.25495
       H    15.30035  -12.99429   -0.35596
       O    15.54621  -12.08095   -0.07479
      H1    15.57415  -12.14204    0.87767
       H     6.09792  -13.98796    4.43556
       O     6.52390  -13.63439    3.62839
      H1     6.47619  -14.38779    3.02918
       H    12.75154  -16.55153    7.37713
       O    11.93222  -16.94412    7.72324
      H1    12.22400  -17.13697    8.62114
       H    12.23031  -18.28539   10.82998
       O    11.56234  -17.71644   10.41497
      H1    11.52368  -16.95171   11.05246
       H    10.06358  -14.18731   -2.10009
       O     9.23875  -13.99120   -1.68403
      H1     8.65115  -14.68998   -1.90733
       H    11.03466  -15.05014    4.53007
       O    10.76701  -14.41710    5.25174
      H1    10.91687  -13.52365    4.95131
       H     6.53058  -16.97946    3.19006
       O     7.47348  -17.40215    3.35448
      H1     7.50386  -17.82235    2.47380
       H     3.90109  -15.57714    7.35978
       O     3.98997  -14.81389    6.75274
      H1     4.98406  -14.85474    6.63239
       H    10.74743  -16.78408    2.73512
       O    11.10535  -16.78904    3.65205
      H1    11.47392  -17.69527    3.66088
       H    12.28063   -6.97694    8.36184
       O    12.40979   -7.89476    8.63376
      H1    11.50257   -8.17991    8.69762
       H     9.44987  -10.85619   -1.26321
       O    10.02343  -11.53284   -1.60618
      H1     9.40857  -12.27468   -1.84018
       H     9.42906  -10.48838   11.64650
       O     9.05756  -10.01403   10.85800
      H1     8.30651  -10.56930   10.70528
       H    13.11092  -14.07383    7.04242
       O    13.23981  -14.81259    6.47219
      H1    12.38322  -14.94543    6.07186
       H    14.07253  -11.10544   10.78188
       O    13.37144  -11.44785   11.42148
      H1    12.75538  -10.73583   11.60803
       H    10.50423  -19.17723    6.50590
       O    11.29211  -19.57822    6.91289
      H1    11.70561  -18.69287    7.17095
       H     6.50733   -9.38402    1.01051
       O     6.18482  -10.23714    0.68022
      H1     5.40534   -9.91063    0.26041
       H     9.41366  -13.61907    1.63738
       O    10.07010  -13.99730    0.99045
      H1     9.57598  -13.90985    0.13347
       H    13.24364  -15.04825    0.31434
       O    13.84735  -15.42209   -0.32694
      H1    13.34784  -15.27579   -1.17647
       H     8.77679  -16.57986   10.68740
       O     9.16755  -15.76544   10.35033
      H1     9.02198  -15.69240    9.41754
       H    14.44338  -10.30264    3.10754
       O    15.11310   -9.58982    3.18842
      H1    15.93075   -9.96076    2.79555
       H    17.88837  -11.25998    6.42678
       O    17.92532  -11.06857    5.45291
      H1    17.51146  -11.88855    5.10240
       H     6.94733  -14.70228    8.04788
       O     6.40669  -14.08470    7.51833
      H1     5.87488  -13.61486    8.17374
       H    15.93576   -9.08757    4.80728
       O    16.42476   -8.82798    5.58417
      H1    16.99786   -9.60833    5.71177
       H    16.65545  -12.60514    3.18676
       O    16.71235  -11.89545    2.56847
      H1    17.57009  -11.95184    2.17580
       H    17.19435  -14.64180    4.64277
       O    16.55421  -13.95173    4.57344
      H1    15.77817  -14.38933    4.93178
       H    15.31745  -10.73939    7.52899
       O    14.41991  -10.52878    7.67220
      H1    14.01758  -10.23288    6.82560
       H     8.02973  -18.11203    5.11658
       O     8.64215  -18.50692    5.81075
      H1     8.63788  -17.89483    6.54116

