180
frame 12 | Written by MDAnalysis XYZWriter (release 2.4.3)
       H   -19.50710   15.38784    1.55181
       O   -19.48349   14.79019    0.84490
      H1   -18.73988   14.23185    1.16458
       H   -18.04901   11.26758   -5.20057
       O   -17.66676   11.86900   -5.81386
      H1   -18.25085   12.63069   -5.68808
       H   -18.58277   14.83948   -5.03014
       O   -19.14665   14.18747   -4.61707
      H1   -18.70510   14.41144   -3.75660
       H   -18.08411   16.33134   -9.38576
       O   -18.61169   17.05924   -9.71257
      H1   -18.26708   17.27272  -10.58675
       H   -15.08910   15.24052  -12.52624
       O   -14.38116   15.66265  -11.92574
      H1   -14.93611   16.34763  -11.49014
       H   -13.17046   12.46080  -10.67397
       O   -12.24060   12.42106  -10.40488
      H1   -11.83375   12.98185  -11.09362
       H   -16.26105   18.07397   -9.96529
       O   -15.56303   17.38288   -9.89109
      H1   -15.96421   16.66680   -9.37876
       H   -13.81827   18.03740  -10.67038
       O   -12.97906   18.37832  -10.91596
      H1   -13.19612   18.89003  -11.68670
       H    -7.21499   18.06855   -2.29741
       O    -6.67682   18.59972   -1.68395
      H1    -7.37873   19.23102   -1.33446
       H   -15.67563   12.19387   -4.31695
       O   -15.41159   13.04490   -3.88855
      H1   -15.84379   12.89501   -3.01831
       H    -9.44118   15.68562    0.05518
       O    -8.93074   16.40025    0.48039
      H1    -8.02008   16.16849    0.49772
       H   -15.10903   14.35073   -5.30775
       O   -15.06844   15.29116   -5.79314
      H1   -15.94021   15.56523   -5.41102
       H    -9.88045    9.96868   -7.58110
       O    -9.49673   10.07314   -6.66602
      H1    -9.39337    9.13947   -6.46308
       H   -17.74858   16.91843   -5.73417
       O   -17.34796   16.27631   -5.10676
      H1   -17.31469   16.88796   -4.29461
       H    -7.92557   15.72730   -2.94334
       O    -7.60042   16.58669   -3.23574
      H1    -6.74383   16.39782   -3.55462
       H   -18.86434   16.17955   -0.39743
       O   -18.63661   17.12274   -0.32874
      H1   -19.44319   17.45510    0.11001
       H   -12.71674   11.76245   -0.77651
       O   -11.97643   12.03089   -0.24898
      H1   -11.78791   12.94007   -0.44187
       H   -11.27004   10.22716    2.55158
       O   -10.76136   10.76414    1.90679
      H1   -11.48021   11.17817    1.42129
       H   -18.32454   19.13315   -4.00371
       O   -18.03836   19.41448   -4.85254
      H1   -17.16645   19.69724   -4.55267
       H   -11.22088   10.72522   -5.86458
       O   -12.14020   11.04858   -5.78150
      H1   -12.52708   10.80190   -6.64740
       H   -14.16913    9.70704   -2.78984
       O   -14.73193    8.89769   -2.71212
      H1   -14.37474    8.42900   -1.89394
       H   -13.67169   18.14192    0.97422
       O   -14.19079   17.72903    0.29683
      H1   -14.64972   18.48269   -0.04540
       H    -9.13874   15.17497   -7.47273
       O    -8.96207   14.33977   -6.99169
      H1    -9.79929   14.30676   -6.42657
       H   -13.90575   10.60824   -5.23611
       O   -14.89116   10.54543   -5.40170
      H1   -14.97946   10.50831   -6.41957
       H   -11.46066   10.81520   -9.64303
       O   -11.07939   10.01924   -9.22824
      H1   -10.48663    9.60864   -9.90275
       H   -14.91238   12.64213   -0.56455
       O   -15.35014   12.05815   -1.20954
      H1   -15.87401   11.46445   -0.64791
       H    -9.01751   17.27952   -8.57369
       O    -8.86146   16.42541   -8.98563
      H1    -9.72653   16.27373   -9.37699
       H    -7.64856   12.45360   -4.20904
       O    -6.82731   12.60341   -3.76989
      H1    -6.67882   11.85363   -3.19175
       H   -13.77985   15.47995   -4.54881
       O   -13.15580   15.33935   -3.83947
      H1   -12.59188   16.14232   -3.84516
       H    -9.74049   19.03084   -2.41927
       O   -10.33002   18.49496   -1.95954
      H1    -9.76172   17.83440   -1.60577
       H   -15.41488   15.48747   -0.41338
       O   -16.35342   15.33703   -0.52656
      H1   -16.78276   16.15328   -0.20194
       H    -7.42679   14.23216   -6.28251
       O    -6.46579   14.00225   -6.18747
      H1    -6.41727   13.57080   -5.28391
       H   -11.47213   17.51738   -7.61103
       O   -10.90182   18.25929   -7.31971
      H1   -11.43697   18.38351   -6.48396
       H   -11.59093   15.38882  -11.63927
       O   -12.03537   14.78259  -12.24447
      H1   -12.94686   15.02130  -11.95714
       H    -8.28834   14.10277   -1.39535
       O    -8.78840   14.27003   -2.20026
      H1    -8.47491   13.53119   -2.77913
       H   -11.83248   16.26686   -9.72972
       O   -11.15978   16.46956  -10.36756
      H1   -11.66881   17.05435  -11.00961
       H    -9.07454   12.99315   -9.97901
       O    -8.64028   12.61827   -9.13397
      H1    -9.03100   13.21593   -8.47504
       H   -17.04462   13.76659    0.08972
       O   -17.23726   13.10746    0.84113
      H1   -16.36701   13.04381    1.20073
       H    -9.17328   11.00043   -5.13563
       O    -9.37898   11.73642   -4.52773
      H1    -9.71952   11.19127   -3.73395
       H   -13.42961   16.38528   -0.80693
       O   -13.31959   15.44205   -1.04596
      H1   -13.22414   15.52286   -2.02354
       H   -16.20385    9.68336   -1.88352
       O   -16.85137    9.83029   -1.15927
      H1   -17.03799    8.86544   -0.96151
       H   -11.82162   14.77618   -0.89891
       O   -11.01277   14.38997   -0.40965
      H1   -10.41999   14.09496   -1.09942
       H   -16.22461   12.25243   -8.03076
       O   -15.61740   12.87615   -8.55098
      H1   -15.01960   13.16683   -7.89343
       H   -13.76038   11.93876   -2.77657
       O   -13.15965   11.16445   -2.97382
      H1   -12.64044   11.45420   -3.76432
       H   -12.58716   13.80738   -7.00106
       O   -13.04203   13.79437   -7.86605
      H1   -12.50577   13.12787   -8.37349
       H   -16.52719   14.47798   -8.21315
       O   -16.52113   15.44629   -8.24785
      H1   -16.21907   15.61535   -7.32650
       H   -18.39219   11.23773   -8.76514
       O   -17.68882   10.76702   -8.23016
      H1   -17.87736   11.17859   -7.32191
       H   -14.14088   13.35163    2.09287
       O   -14.71618   12.69893    1.71206
      H1   -15.10401   12.30920    2.53291
       H   -15.25889   12.81436  -10.29314
       O   -14.94599   12.66126  -11.21502
      H1   -15.31706   13.38840  -11.70445
       H   -13.47334    7.73875   -4.45483
       O   -12.73678    7.11548   -4.43955
      H1   -13.15413    6.39959   -3.93733
       H   -14.67388   11.03447   -8.94899
       O   -14.04861   10.39872   -8.55227
      H1   -13.77857    9.74625   -9.24398
       H   -13.58813   15.74478   -8.68940
       O   -13.30847   16.49010   -8.12429
      H1   -13.81858   16.42086   -7.30461
       H   -18.73968   18.61357   -6.51436
       O   -19.14632   17.76535   -6.69661
      H1   -18.91187   17.69352   -7.64547
       H   -17.58318   17.52978   -2.16057
       O   -16.83383   17.37649   -2.75267
      H1   -16.28353   16.77963   -2.19606
       H   -11.96693   13.66255    1.75142
       O   -12.49726   13.95880    2.46711
      H1   -12.10885   13.43056    3.20667
       H   -18.75898   13.77297   -1.87452
       O   -18.46299   14.69548   -2.08366
      H1   -17.54189   14.81658   -1.78773
       H   -10.75363   10.50655   -1.68359
       O   -10.16453   10.15927   -2.33556
      H1    -9.31596    9.94573   -1.81235
       H   -12.17247   18.23593   -4.43221
       O   -11.51989   17.52320   -4.29638
      H1   -10.94402   17.84666   -3.56656
       H   -11.93532   14.12043   -4.86883
       O   -11.41279   13.85720   -5.68690
      H1   -11.32259   12.89787   -5.59517
       H    -8.76220   17.40072   -4.91027
       O    -8.64835   17.83782   -5.80463
      H1    -9.56188   17.80254   -6.18664

