180
frame 1 | Written by MDAnalysis XYZWriter (release 2.4.3)
       H    14.97653    5.33088    4.21929
       O    14.56559    6.15204    4.43977
      H1    13.63250    5.83552    4.36491
       H    16.04898    9.67174   -6.30674
       O    16.26905   10.15227   -7.13332
      H1    15.50047    9.94228   -7.67580
       H    16.04333   12.47741    4.42435
       O    16.32489   13.39536    4.46651
      H1    17.29693   13.37465    4.57911
       H    14.23880   10.20795    4.76199
       O    14.77199   11.03283    4.68096
      H1    14.16561   11.70983    4.94610
       H    17.42886   11.48516    2.18215
       O    16.73045   10.76852    2.32649
      H1    17.11543   10.16411    2.98786
       H    18.07727    8.24749    7.01513
       O    17.23438    8.64159    6.66240
      H1    16.61159    7.93653    6.90709
       H    14.96625    3.36202   -1.05650
       O    15.50315    3.21706   -0.26678
      H1    16.01829    2.39349   -0.48462
       H    15.90914   11.04883   -0.72643
       O    16.70141   10.48815   -0.65953
      H1    16.95160   10.37515    0.30085
       H    15.56146   14.14628    1.67792
       O    16.41891   14.48066    1.92490
      H1    16.47466   14.13381    2.84321
       H    12.40069    6.52607   -5.62793
       O    11.92226    7.35047   -5.38041
      H1    12.46275    7.69508   -4.68330
       H    16.83386    8.47432   -1.25782
       O    17.03942    7.56342   -1.15877
      H1    17.51491    7.51909   -0.33890
       H    17.47295    7.03543    2.58912
       O    17.28519    6.47549    1.86214
      H1    16.26402    6.49479    1.84638
       H    17.49931    7.21074   -8.35343
       O    17.28777    6.53928   -9.03141
      H1    16.34869    6.43884   -9.01793
       H    16.87703    8.12573   -4.21123
       O    16.32581    8.89607   -4.53822
      H1    15.43902    8.52396   -4.47289
       H    13.68646    5.27158   -1.93637
       O    13.87089    4.43093   -2.37729
      H1    12.95892    4.31234   -2.73505
       H    13.50224   14.39557   -0.86097
       O    12.56973   14.40265   -0.59861
      H1    12.39910   13.47799   -0.48177
       H    15.74847    3.36415   -4.57294
       O    15.57513    2.76380   -5.30396
      H1    14.61911    2.70262   -5.37308
       H    10.60506   12.60891   -1.44712
       O    11.02769   11.93931   -0.89318
      H1    10.61632   12.30823   -0.06845
       H    15.57583   -0.53223   -0.64455
       O    16.04444   -0.57579    0.18567
      H1    16.68227    0.21823    0.08008
       H    18.91521   15.07503    1.15563
       O    19.20609   15.98974    1.16844
      H1    18.43823   16.42460    1.58358
       H    13.50795   11.86086    2.13754
       O    14.31491   12.22397    1.77689
      H1    14.98299   11.56518    2.09427
       H    14.64338    0.94266    0.69742
       O    13.95999    1.45178    1.14302
      H1    14.13532    2.35606    0.76655
       H    13.38411    9.55173   -4.31509
       O    13.79974    8.96364   -3.64857
      H1    13.27586    9.24333   -2.82128
       H    19.17813    6.97835    4.44530
       O    19.65281    6.19873    4.69195
      H1    18.95727    5.59137    4.98713
       H    15.12307    4.45407   -5.77953
       O    14.39899    5.09810   -5.76428
      H1    14.60419    5.47094   -6.61684
       H    14.07404   11.85127   -0.15808
       O    14.40640   11.71883   -1.02506
      H1    13.91815   10.93787   -1.34406
       H    16.09010    3.82459    1.78164
       O    15.60651    3.93389    2.56831
      H1    15.53631    3.09705    3.04256
       H    12.22969    8.49111    1.78326
       O    13.13858    8.83022    1.87162
      H1    13.35010    9.04173    0.93367
       H     8.88729    4.36323    0.52401
       O     8.98345    4.75624   -0.38453
      H1     9.82974    5.20496   -0.22145
       H    10.46122    3.72282   -1.76608
       O    10.80795    3.91529   -2.62900
      H1    10.07141    4.35664   -3.02175
       H    12.27530    4.51839    4.92428
       O    12.71314    4.10436    4.13459
      H1    12.83843    3.17286    4.48298
       H    12.07026    1.78645    0.22430
       O    11.29446    2.06537   -0.21077
      H1    10.68308    2.24707    0.52860
       H    16.05035   10.55975   -3.76634
       O    16.22890   11.52210   -3.47589
      H1    15.58274   11.63401   -2.75780
       H    17.23825    5.23176   -3.80376
       O    16.81917    4.38936   -3.53956
      H1    16.22008    4.70222   -2.84650
       H    14.76839    5.59880    2.02457
       O    14.57329    6.41918    1.46555
      H1    14.26151    7.07807    2.11541
       H    12.66410    8.76133    6.16370
       O    13.62267    8.86379    6.01220
      H1    13.99457    8.08066    6.36772
       H    16.25361    0.97168   -4.75627
       O    16.52230    0.19906   -4.21134
      H1    17.38208    0.62977   -3.91514
       H    17.34661   11.98009   -6.67277
       O    17.92941   12.64289   -7.10069
      H1    17.92582   13.37360   -6.40814
       H    18.58843   13.77701   -1.57220
       O    18.34932   14.57404   -1.10124
      H1    18.95511   14.45398   -0.38669
       H    17.53988    3.83466    5.60089
       O    17.36095    4.64227    5.10140
      H1    17.46526    4.24344    4.20682
       H    10.83932    6.65164    2.67719
       O    10.91951    7.50629    3.13509
      H1    10.04271    7.93980    3.16565
       H    14.99922    6.85348   -1.21833
       O    14.06614    6.75931   -1.07179
      H1    14.03917    6.63896   -0.08639
       H    19.31777    3.07901    3.09611
       O    18.46540    2.68380    3.18078
      H1    18.63000    2.11126    3.94874
       H     9.82921    9.15073   -1.94490
       O    10.19311    9.44508   -1.05569
      H1    10.40914   10.36118   -1.18034
       H    11.22757   11.39204    1.91452
       O    11.90511   11.20143    2.56454
      H1    12.30146   10.39544    2.13586
       H    11.69504    4.41902    2.13147
       O    11.67996    5.27241    1.65907
      H1    12.63882    5.45653    1.76936
       H    14.72254    6.33851    6.15441
       O    15.01022    6.56392    7.07740
      H1    14.21406    6.60825    7.58952
       H    12.96738    1.83184   -3.89214
       O    12.67731    1.21982   -3.19726
      H1    11.73845    1.39842   -3.20332
       H    19.74799   10.50103   -1.05889
       O    19.28389   11.27289   -1.46913
      H1    18.31747   10.95291   -1.34282
       H    12.12564    9.02323   -1.08869
       O    13.06210    9.19375   -0.93217
      H1    13.44051    8.30179   -0.90129
       H    15.78958   13.18806   -4.47432
       O    15.51177   14.07389   -4.35275
      H1    14.87715   14.19922   -5.12496
       H    16.19482   14.89750   -1.08577
       O    15.27361   15.15483   -1.28333
      H1    15.22066   14.77495   -2.23366
       H    17.55517    9.02514   -7.44632
       O    18.35735    8.45080   -7.33818
      H1    18.22755    8.09467   -6.46227
       H    13.07412   11.58178   -5.87343
       O    13.28437   10.68758   -6.07590
      H1    13.45311   10.59797   -7.05507
       H    17.89201    3.75221   -1.93757
       O    18.53605    3.81678   -1.24231
      H1    18.60817    4.75658   -0.98221
       H    19.97740    4.89437    0.96024
       O    19.48394    5.70154    0.58140
      H1    18.66817    5.65627    1.15819
       H    14.64945    1.64305    5.22098
       O    15.47113    1.61077    4.77335
      H1    16.10472    1.66433    5.52654
       H    18.88890    7.50049   -3.53625
       O    18.06067    6.94776   -3.51019
      H1    17.83268    7.00701   -2.53196
       H    17.51557    8.90752    4.73898
       O    17.90177    8.75909    3.85334
      H1    18.80331    9.14301    3.91669
       H    17.74555    1.83239    1.34402
       O    17.58814    1.63349    0.38631
      H1    18.03420    2.38272   -0.03527

