180
frame 6 | Written by MDAnalysis XYZWriter (release 2.4.3)
       H    16.54848    4.06348    4.92664
       O    15.85693    4.79589    4.82393
      H1    15.05141    4.31338    4.91953
       H     8.76792    0.55758   -2.54713
       O     8.90834    0.39928   -3.46083
      H1     8.50201   -0.48604   -3.51353
       H     6.95549    2.48954   -5.19450
       O     7.69588    2.71843   -4.53436
      H1     8.01751    1.80956   -4.28622
       H    13.84678    2.12689   -0.42641
       O    14.18750    1.46755    0.24164
      H1    15.08120    1.52665   -0.09476
       H    13.30852    2.08617   -7.90324
       O    12.91290    1.50139   -8.56556
      H1    13.64300    0.89805   -8.75425
       H    13.87483    7.18683   -4.82787
       O    12.99570    7.56303   -4.61462
      H1    13.17451    8.16156   -3.93035
       H    16.11394    7.92722   -0.18453
       O    15.91798    7.02273    0.12819
      H1    16.81412    6.65327    0.30524
       H    17.44323    6.54356    2.27611
       O    18.19183    6.03202    1.91780
      H1    18.21810    5.24470    2.50856
       H    16.36946    0.63271   -1.61067
       O    15.92962    0.11235   -2.33169
      H1    15.23291    0.70825   -2.60783
       H    14.01042    3.87015   -1.12484
       O    13.67134    3.13994   -1.65103
      H1    12.87949    3.50659   -1.97143
       H     9.42529    3.46750   -5.00699
       O    10.28279    3.93431   -5.21202
      H1    10.81758    3.13671   -5.32696
       H    14.33640   -2.95410    1.81409
       O    14.93669   -2.28270    1.52638
      H1    14.59859   -2.08046    0.64772
       H    12.10077    6.92722   -7.67439
       O    12.95120    7.14101   -8.06843
      H1    13.55332    6.51847   -7.64036
       H    14.52788    1.10441   -5.78575
       O    14.75117    2.06474   -5.75472
      H1    15.58531    2.13744   -6.19712
       H    11.48278    7.03869   -5.27130
       O    10.72384    6.54473   -5.63761
      H1    10.93306    5.62826   -5.47453
       H    18.97355   -3.21989   -1.59011
       O    19.31123   -2.32867   -1.32244
      H1    18.83261   -1.70134   -1.92734
       H    13.04112   -1.58401   -1.52619
       O    13.92935   -1.70286   -1.07411
      H1    14.33529   -0.91336   -1.49074
       H    11.80744    0.72866   -0.74589
       O    11.27355    0.60713    0.07821
      H1    11.75376    1.25346    0.61781
       H    14.07966   11.03166   -3.57875
       O    14.07673   10.08144   -3.41617
      H1    14.22710   10.06456   -2.48276
       H    17.21629    0.47152   -6.47257
       O    17.74157   -0.35850   -6.52682
      H1    17.01075   -0.93589   -6.76387
       H    11.95249    6.70715    3.82892
       O    12.87264    6.80308    4.12781
      H1    13.17231    7.21200    3.32779
       H    14.63987    4.63639   -6.88951
       O    14.53380    5.51655   -6.49405
      H1    15.30300    5.98562   -6.86599
       H    15.06160    2.62056    1.52281
       O    15.68525    3.00965    2.15258
      H1    15.96721    2.33692    2.80885
       H    15.25893    9.08572    2.02562
       O    14.55816    9.78941    1.83819
      H1    14.06900    9.31501    1.11184
       H    11.85241    5.22774    0.04017
       O    11.19460    5.35107    0.72959
      H1    11.31776    4.57280    1.25974
       H    10.60736    4.05546   -1.39227
       O    11.20200    3.81748   -2.09811
      H1    10.88049    4.24920   -2.89265
       H    10.96499    3.93553    5.07831
       O    11.33121    4.00745    4.14669
      H1    12.02368    3.33486    4.15538
       H     9.69280    1.17963   -0.41029
       O     8.77267    1.27942   -0.71103
      H1     8.62977    2.19906   -0.59786
       H     7.77533    6.36735   -1.39435
       O     6.89716    5.97256   -1.56554
      H1     7.08104    5.04986   -1.76268
       H    14.91666    5.20625   -3.44251
       O    15.49808    4.48826   -3.27515
      H1    14.83928    3.84209   -2.99992
       H    14.50371    4.43842    2.46509
       O    13.63354    4.89374    2.49912
      H1    13.63121    5.32862    3.33224
       H    16.82929    3.92930   -2.48406
       O    17.55789    3.41659   -2.08102
      H1    17.99567    3.17764   -2.86338
       H    10.83602   -1.50712    0.95940
       O    10.96404   -2.19423    1.60855
      H1    11.54169   -1.69695    2.24275
       H    12.24679    0.69543   -7.25758
       O    12.21101    0.27354   -6.35755
      H1    11.43830   -0.29159   -6.61625
       H    10.02099   -2.22139   -2.80828
       O     9.33657   -2.91559   -2.80581
      H1     9.72746   -3.54427   -2.15017
       H     8.67597    3.78808    0.77071
       O     8.23554    3.87960   -0.03478
      H1     7.42086    4.36762    0.24111
       H    10.47983    6.69616    1.59255
       O    10.42927    7.41766    2.26277
      H1     9.53453    7.85124    2.08086
       H    14.62210    5.90036    0.17317
       O    13.92260    5.32962   -0.12810
      H1    13.52913    5.32197    0.78604
       H    19.50381    1.78420    1.50566
       O    18.91957    1.82532    2.31461
      H1    19.38435    1.13499    2.80904
       H    10.37820    8.54867   -2.42519
       O    10.92666    8.57374   -1.57684
      H1    11.07091    9.49412   -1.45995
       H    11.87637   -0.75577   -2.89093
       O    11.84134   -1.59747   -2.40788
      H1    12.25727   -2.17776   -3.13442
       H    13.61199   -2.12481   -5.10652
       O    13.11730   -2.80530   -4.60341
      H1    12.29743   -2.91318   -5.14552
       H    11.30470    2.65200    2.41110
       O    12.06694    2.78013    1.77510
      H1    12.56006    3.58232    2.18307
       H    10.10344    9.09163   -5.11947
       O     9.82746    8.56550   -4.39304
      H1     9.95733    7.67253   -4.82280
       H    15.66592   -4.27978   -2.62156
       O    14.92323   -4.30700   -1.97174
      H1    14.75753   -3.33597   -1.92474
       H    14.93093   -1.49377   -6.31274
       O    14.44490   -0.85574   -5.78399
      H1    13.57993   -0.70389   -6.18230
       H     9.37852    7.94995   -1.03138
       O     8.58383    7.63200   -0.60272
      H1     7.87320    8.20851   -0.85270
       H    17.99145    2.18029   -7.52256
       O    17.45034    2.32733   -6.72510
      H1    18.09383    2.46576   -5.99632
       H    19.59071    3.55106   -4.86534
       O    19.03042    2.78234   -4.64689
      H1    19.68276    2.09515   -4.96091
       H    12.57024    8.33369   -0.61873
       O    13.46792    8.46325   -0.19288
      H1    13.86015    7.61806   -0.37279
       H    17.39731   -0.28198   -2.87072
       O    18.34728   -0.40521   -3.16365
      H1    18.26015   -0.31216   -4.10385
       H     9.90621    3.75831    3.13871
       O     9.29694    3.34681    2.50212
      H1     8.49621    3.24747    2.87965
       H    10.72847    1.08027   -3.08999
       O    11.67896    1.05376   -2.81031
      H1    11.91004    1.99090   -2.76782
       H     6.28930    1.41676    1.26033
       O     6.44471    0.96137    0.42134
      H1     7.41569    1.02938    0.22061
       H    12.68210    1.39246    5.15095
       O    13.23585    1.68261    4.40005
      H1    12.86302    1.20061    3.65788
       H    18.14050    5.17288   -1.96215
       O    18.64832    5.97494   -2.06414
      H1    19.29970    5.84163   -1.34961
       H    12.86204   -0.28621    1.42283
       O    12.94967   -0.25808    2.35564
      H1    13.86997   -0.47889    2.40955
       H    14.94347    1.24049    4.19338
       O    15.88031    1.07582    4.18879
      H1    16.04729    0.83343    5.10315
       H    19.05668    8.33887   -4.42253
       O    18.15357    8.00336   -4.58363
      H1    18.10814    7.38943   -3.81114
       H    17.38483    1.80167    0.67393
       O    17.00762    1.51849   -0.18260
      H1    17.16469    2.29834   -0.75534

