180
frame 0 | Written by MDAnalysis XYZWriter (release 2.4.3)
       H     1.27544    4.58986   -8.90703
       O     1.50723    5.45734   -8.60411
      H1     1.02708    6.12569   -9.20613
       H    -4.35592    9.79199   -6.59716
       O    -4.34068    8.92446   -6.25282
      H1    -4.42106    8.34669   -7.05014
       H    -4.15490   12.62772   -6.80000
       O    -3.99169   11.68050   -7.13292
      H1    -3.00826   11.77556   -7.17618
       H    -5.14704    7.69625   -2.80916
       O    -5.99318    7.53979   -2.35826
      H1    -5.93141    7.75775   -1.44108
       H     1.83367    2.11723   -8.88137
       O     1.15500    2.80149   -8.99998
      H1     0.74068    2.56452   -9.82303
       H    -2.29830    3.69246  -14.08343
       O    -3.22070    3.57310  -13.95825
      H1    -3.25102    3.42561  -12.97698
       H    -2.15385    4.31821   -3.54480
       O    -1.34337    3.77073   -3.50879
      H1    -0.89514    4.06904   -2.70066
       H    -2.36430    8.79737  -11.99154
       O    -2.14718    9.77210  -12.11729
      H1    -2.41770   10.06581  -11.26724
       H     0.46190    7.81551   -8.12864
       O    -0.13107    7.88504   -7.31740
      H1     0.00012    8.84323   -7.06262
       H    -4.24812    5.08102   -4.05638
       O    -3.31887    5.37576   -4.18760
      H1    -3.19345    5.06310   -5.09848
       H    -7.68202   11.81559   -8.86950
       O    -6.87979   12.17221   -8.39404
      H1    -6.86389   11.55564   -7.64995
       H     0.74710    3.50734  -13.33669
       O     1.31801    3.43560  -12.50564
      H1     1.03654    2.59567  -12.20013
       H    -4.40309    7.96353  -14.52769
       O    -4.95473    8.70014  -14.72462
      H1    -5.46531    8.27469  -15.35446
       H    -6.20642    4.49808   -5.25523
       O    -5.76899    4.17547   -4.47049
      H1    -5.56191    3.31514   -4.88255
       H    -0.39771    6.62782   -1.36548
       O     0.34469    6.90276   -1.92470
      H1     1.02315    6.26523   -1.59497
       H     2.24553    8.67522   -8.85180
       O     1.41468    8.53911   -9.39981
      H1     1.81797    8.08428  -10.15118
       H    -1.24846    4.34116  -10.83622
       O    -1.62192    3.45600  -11.10058
      H1    -2.07064    3.19673  -10.25216
       H    -5.27666    9.00225  -10.06075
       O    -5.37335    8.08535  -10.24218
      H1    -5.60009    7.68085   -9.34366
       H    -9.26418    7.87809   -7.21768
       O    -8.60029    7.54176   -6.60614
      H1    -8.88816    6.62385   -6.44380
       H    -0.12116    0.49709  -11.77530
       O    -0.01162    1.25968  -11.17149
      H1    -0.75053    1.83749  -11.34212
       H    -5.78356    5.72282   -7.72667
       O    -5.85729    6.68099   -7.91024
      H1    -6.78593    6.78550   -7.61591
       H    -5.78996   12.74727   -9.61595
       O    -5.27031   13.30994  -10.26600
      H1    -5.69648   12.97943  -11.07623
       H     1.10823   10.92638  -11.60261
       O     1.32723   11.19681  -10.66827
      H1     1.45342   10.36008  -10.16572
       H    -7.11184    4.85257  -12.69931
       O    -6.80443    5.72979  -12.97406
      H1    -7.64778    6.22600  -13.16700
       H    -0.49037   11.88592   -8.52437
       O    -1.17302   12.06561   -7.82031
      H1    -0.75672   12.90035   -7.43084
       H    -2.44499   12.58670   -4.84568
       O    -1.97807   12.64649   -4.03742
      H1    -1.89485   11.69176   -3.89668
       H    -0.65599   15.14955   -7.08315
       O    -1.27403   14.52749   -6.69019
      H1    -2.01648   14.54918   -7.27891
       H    -3.15031    7.15931  -12.20762
       O    -3.09555    7.41860  -11.25297
      H1    -4.04350    7.73216  -11.07139
       H    -3.65570    8.37739   -4.77645
       O    -3.67551    8.12192   -3.81959
      H1    -3.22897    7.24945   -3.94181
       H     4.12590    8.62298   -7.65711
       O     3.52920    9.30060   -7.89140
      H1     4.01468    9.74533   -8.62190
       H    -3.58111    1.78030   -6.99320
       O    -4.23600    1.81108   -6.29176
      H1    -4.84576    1.13155   -6.61048
       H    -0.13000    1.75039   -8.07529
       O    -0.72535    0.98616   -7.88528
      H1    -0.35611    0.15398   -8.29905
       H    -4.79071    3.34562   -7.47594
       O    -5.51738    3.94134   -7.74042
      H1    -5.15873    4.17893   -8.58497
       H     0.31325   11.39264  -13.30583
       O     0.33281   10.43869  -13.13012
      H1    -0.51521   10.31558  -12.66687
       H     0.31120   12.78988  -10.41986
       O    -0.10696   13.64720  -10.41208
      H1    -1.02471   13.36123  -10.16796
       H    -2.09146    9.06176   -3.63367
       O    -1.61627    9.87539   -3.70776
      H1    -1.32313   10.06849   -2.79792
       H    -3.75852   11.18300   -8.97885
       O    -3.54378   10.82735   -9.88756
      H1    -3.34285   11.63913  -10.33386
       H    -5.20384   11.89101   -2.35935
       O    -5.61776   11.46293   -3.15198
      H1    -5.03829   10.69520   -3.19613
       H    -5.45086    5.55573  -10.53155
       O    -4.65201    5.02656  -10.26069
      H1    -3.91583    5.66703  -10.39372
       H    -9.08265    8.37648   -5.30325
       O    -9.70742    8.94547   -4.74285
      H1    -9.43065    8.65098   -3.83297
       H     0.57024    4.42504   -7.07321
       O     0.16091    4.01284   -6.33908
      H1     0.37756    4.48845   -5.51473
       H    -7.43640   11.72769  -12.70872
       O    -7.06454   11.42519  -11.89371
      H1    -6.15262   11.28421  -12.15906
       H    -3.80210   10.48974  -12.74143
       O    -4.67896   10.90714  -12.97528
      H1    -4.93590   10.18778  -13.55451
       H     0.55946    7.15312   -4.54396
       O     1.04196    6.65389   -5.14944
      H1     0.75109    6.95830   -6.00592
       H    -0.38063    7.19823  -13.86172
       O    -0.26751    6.50902  -13.23965
      H1     0.54849    6.70877  -12.73448
       H    -7.11051    3.02744   -8.91273
       O    -7.96185    2.68468   -8.67131
      H1    -8.60277    3.18638   -9.21834
       H    -3.05270   12.84219  -12.51345
       O    -2.77183   12.82972  -11.57648
      H1    -3.58096   13.11186  -11.17225
       H    -1.84877    7.90818   -8.24304
       O    -2.68650    7.42314   -8.25224
      H1    -3.26406    7.97025   -8.80282
       H    -1.08945    6.45054  -11.00151
       O    -0.84476    5.93145  -10.25235
      H1    -1.53735    6.14142   -9.63647
       H    -1.61024    4.87703   -6.68485
       O    -2.54429    4.94034   -6.84355
      H1    -2.72358    5.87027   -7.07307
       H     1.67966    5.50815  -11.89676
       O     1.99882    6.38484  -11.60676
      H1     2.97857    6.13126  -11.55546
       H    -0.10240    4.12961  -15.20299
       O    -0.47823    3.87552  -14.34835
      H1    -0.44864    4.71061  -13.80585
       H    -2.43716    3.27303   -8.22033
       O    -2.75305    2.43869   -8.57711
      H1    -1.95598    1.80692   -8.47300
       H    -4.53548    3.36230  -11.00308
       O    -4.70864    2.61912  -11.58472
      H1    -5.65769    2.57258  -11.72263
       H    -6.03601    9.25785   -5.94227
       O    -6.88506    9.80474   -6.00663
      H1    -7.52346    9.12362   -5.69223
       H     0.70438   10.78802   -4.48284
       O     1.10602   11.07046   -3.61666
      H1     1.75418   10.35468   -3.54545
       H    -3.96230    5.40713  -13.51952
       O    -3.70994    6.31141  -13.77046
      H1    -3.02962    6.19816  -14.47006
       H     2.81048    8.56967   -5.26468
       O     3.08407    8.86515   -4.39223
      H1     2.51492    8.29115   -3.87942
       H    -0.23550   11.14875   -6.26050
       O     0.01004   10.29826   -5.86375
      H1    -0.69650   10.09128   -5.26814
       H     3.54866    4.30150   -4.98189
       O     3.90717    4.52223   -5.87239
      H1     3.32274    5.21699   -6.16868

