180
frame 11 | Written by MDAnalysis XYZWriter (release 2.4.3)
       H     4.94908    5.48900   19.22967
       O     4.43360    4.76191   18.82466
      H1     3.51398    5.07972   18.85396
       H    -0.16785    2.57918   13.62981
       O    -0.66597    2.90543   14.39281
      H1    -0.85625    3.77403   13.96983
       H     6.24825    2.99045   17.07905
       O     6.51892    3.85237   16.90427
      H1     6.32859    4.31279   17.72943
       H     4.68790    0.14109   10.10221
       O     5.27533   -0.35680   10.71320
      H1     5.08367    0.09770   11.55383
       H    13.59391    0.64900   18.03741
       O    13.81712    0.16599   17.24293
      H1    14.47199   -0.42092   17.65908
       H     3.37466    8.09950   14.28948
       O     2.52330    7.76642   14.69781
      H1     2.54398    6.89951   14.33578
       H     9.10974   -0.67455   15.34848
       O     9.96416   -0.62733   14.90005
      H1    10.06322    0.31532   14.73172
       H     0.02246    3.83859   17.78892
       O    -0.02206    4.43056   17.02714
      H1    -0.41583    3.85042   16.30298
       H     9.94547    0.19001   11.51812
       O     9.53080    0.98954   11.90455
      H1     9.93149    1.05027   12.80187
       H     2.09178   -3.39001   14.80926
       O     2.58992   -3.79218   15.54230
      H1     2.24586   -3.35609   16.32007
       H     4.09908   -0.30013   18.40434
       O     4.04480   -0.76703   19.28222
      H1     3.42006   -0.34071   19.86475
       H    11.46264   -1.24752   15.78589
       O    12.20469   -1.77581   16.14606
      H1    12.64642   -1.04408   16.64149
       H    -0.75463    0.94951   15.21007
       O    -0.81443    0.46494   16.04146
      H1    -1.56342    0.93681   16.46255
       H    10.06750   -4.04780   14.25535
       O     9.90778   -4.77889   14.81890
      H1    10.39589   -4.39734   15.60375
       H     1.96647   -1.81380   17.97099
       O     2.00124   -2.80238   17.97592
      H1     2.93390   -2.98397   18.28778
       H     6.91600   -1.06560   10.93322
       O     7.78707   -1.54163   10.87976
      H1     7.82133   -2.00761   11.75586
       H    10.77010    5.61942   13.86271
       O    10.00584    6.04034   14.37597
      H1    10.43631    6.60103   15.06825
       H     8.04797   -2.89103   19.22544
       O     8.68734   -3.62244   19.06473
      H1     9.20301   -3.33650   18.28930
       H     6.43789    6.05579   11.76732
       O     5.69160    6.34223   11.19431
      H1     5.04726    5.67068   11.51151
       H     1.57535    0.30835   11.88127
       O     1.58671   -0.62969   11.64112
      H1     2.04120   -0.74288   10.77157
       H     7.10633   -2.07263   14.01846
       O     7.63493   -2.52262   13.34658
      H1     7.22767   -3.41423   13.29496
       H     3.02821    4.64086   12.31553
       O     3.71303    4.45314   11.63852
      H1     4.24417    3.80663   12.18713
       H     6.01446   -5.76046   16.29141
       O     5.13726   -6.22207   16.43229
      H1     4.78985   -6.19042   15.52092
       H     7.75026    0.23763   13.19434
       O     6.98739    0.42597   13.79370
      H1     6.39947    0.99099   13.23613
       H     0.43295   -0.04061   17.05165
       O     1.13449   -0.06742   17.76316
      H1     1.70834    0.61172   17.30600
       H     8.13730   -4.81617   15.55105
       O     7.39226   -4.69342   16.17158
      H1     7.81887   -4.85730   17.05076
       H     8.97226    6.28977   12.54667
       O     8.41653    6.58033   11.79391
      H1     9.20519    6.61308   11.15566
       H     4.16857    5.86632   16.37556
       O     4.33362    5.07976   15.84163
      H1     5.06522    4.67867   16.37023
       H    11.86379    3.60304   13.35819
       O    11.72082    4.38736   12.83707
      H1    11.50348    4.05310   11.96386
       H     5.97053    7.02508   16.59175
       O     6.47315    7.40051   17.35105
      H1     6.91728    6.63171   17.62180
       H     0.92053    5.94383   18.43760
       O     1.72681    5.68548   18.89350
      H1     1.52494    6.18043   19.71983
       H    14.08666    2.39491   15.10493
       O    13.79452    1.48234   14.92910
      H1    13.69987    1.13091   15.87395
       H     2.84683    6.62570   17.76167
       O     3.50591    7.17244   17.29791
      H1     3.02329    7.20036   16.40584
       H     6.53096    0.53092   16.86479
       O     5.90423    1.15408   17.25809
      H1     6.18525    1.19155   18.15985
       H    11.66508   -3.38180   16.86143
       O    11.12625   -4.15140   17.08004
      H1    11.69608   -4.53341   17.77848
       H     0.40854    1.47878   18.30457
       O    -0.01692    2.27748   18.67628
      H1    -0.85444    1.82436   18.82807
       H     2.96339   -3.26508   12.28360
       O     2.30375   -3.16409   12.94798
      H1     1.89986   -2.36832   12.60828
       H     3.79482    2.27843   16.99177
       O     2.90780    2.04693   17.35951
      H1     3.03187    2.39432   18.25063
       H    12.00314    2.20277   10.69184
       O    11.19016    2.73345   10.70654
      H1    10.59967    2.06115   11.16613
       H    -0.27777   -4.51076   16.57233
       O    -0.25139   -4.11304   17.45403
      H1     0.55043   -3.65410   17.64719
       H     3.02435   -0.99225   14.79584
       O     3.23226   -0.62026   15.64151
      H1     4.21761   -0.59920   15.64844
       H     9.30969    4.42056   14.82457
       O     9.25490    3.45626   14.97126
      H1     9.50476    3.41934   15.87770
       H     1.69622    2.47645   13.19282
       O     0.99445    2.14553   12.56901
      H1     1.09067    2.77150   11.79241
       H     9.73199    3.84931   18.10921
       O     9.45864    3.04685   17.59797
      H1     8.60230    3.35098   17.32056
       H    10.46188    2.42352   14.49836
       O    11.06975    1.81850   14.04520
      H1    11.87635    1.83013   14.57775
       H     6.80299   -5.88711   18.45566
       O     7.75858   -6.07981   18.60743
      H1     8.12511   -5.19209   18.80788
       H     7.12141   -0.76109   15.13543
       O     7.31584   -1.19692   15.96124
      H1     6.64733   -1.87082   15.84479
       H     4.44815   -3.32824   15.67599
       O     5.33564   -3.02300   15.37549
      H1     5.98907   -3.68159   15.76092
       H     1.17452    4.88644   13.63640
       O     2.11760    5.16483   13.66715
      H1     2.52683    4.50420   14.31022
       H     6.80343   -5.82040   13.30947
       O     6.49534   -4.90487   13.22240
      H1     6.35667   -4.86654   12.26397
       H     5.63118    2.87150   12.73868
       O     5.39034    2.03023   12.32573
      H1     5.94332    2.06984   11.48908
       H     8.09063    1.63783    9.65773
       O     7.24634    2.08130    9.90539
      H1     7.44522    2.99059    9.53663
       H     3.06588    1.50450   14.75160
       O     2.95295    2.44219   14.71987
      H1     2.51816    2.59121   15.58098
       H     4.33639   -5.61693   19.29938
       O     4.74922   -4.93867   18.73565
      H1     4.63737   -5.43231   17.90308
       H     9.55484   -1.06995   10.62797
       O    10.49892   -1.16904   10.67748
      H1    11.04657   -0.70883    9.99852
       H     3.46437   -4.89464   14.47255
       O     3.93762   -5.55629   13.99299
      H1     4.71334   -5.04859   13.66521
       H    10.44474   -2.40118   13.40593
       O    10.80208   -3.06472   12.76327
      H1    10.52165   -2.83132   11.86551
       H     5.79676    4.78622   14.13871
       O     6.33382    4.48898   13.41251
      H1     7.20433    4.20637   13.78148
       H     9.77372    8.48267   18.51012
       O     9.42612    7.72193   18.00745
      H1     9.89878    6.93318   18.36477
       H    10.38655    5.11319   19.90878
       O    10.54117    5.54014   19.07992
      H1    11.17955    6.22122   19.37781

