180
frame 5 | Written by MDAnalysis XYZWriter (release 2.4.3)
       H    13.82117  -18.43131   -3.62393
       O    13.50280  -18.34550   -4.57288
      H1    13.20214  -19.23834   -4.73658
       H    16.83472  -17.27266    3.68605
       O    16.35649  -17.36539    2.83035
      H1    15.47130  -17.23242    3.13696
       H    10.85357  -12.68347   -4.42313
       O     9.86889  -12.67240   -4.47653
      H1     9.74219  -12.41679   -5.41213
       H    15.44388  -16.25270   -2.63860
       O    16.16866  -15.65920   -2.80394
      H1    16.84385  -16.14988   -2.39022
       H    13.22320  -14.58879   -2.89381
       O    13.42270  -15.33889   -2.32615
      H1    12.77536  -15.97896   -2.72026
       H     8.26273   -9.16838   -2.41030
       O     8.10116   -8.58725   -1.61614
      H1     7.40823   -9.00861   -1.03589
       H     7.52425  -13.36129    2.43095
       O     8.33388  -12.90971    2.20972
      H1     8.28801  -12.26135    2.92041
       H    12.68758   -8.80127   -6.96459
       O    13.62452   -8.74311   -7.27578
      H1    13.89221   -7.83198   -6.91210
       H    12.40049  -10.57870   -8.76926
       O    12.75464  -11.22350   -8.10254
      H1    13.45677  -10.64039   -7.76346
       H    12.20380  -13.75466    0.59588
       O    13.06302  -13.33845    0.90548
      H1    12.69038  -12.44248    1.15569
       H    17.05497  -11.30199   -0.96007
       O    17.58276  -11.40473   -1.77498
      H1    17.26370  -10.65096   -2.31299
       H    11.13685  -16.21422   -4.20880
       O    11.51883  -16.79089   -3.55890
      H1    11.85170  -17.45127   -4.22529
       H    13.14006  -12.00045   -0.47005
       O    12.69849  -11.42913   -1.09589
      H1    11.76388  -11.51431   -0.82781
       H    16.97259  -16.70680   -9.05132
       O    17.77294  -17.31435   -8.94734
      H1    17.58147  -17.86456   -8.16181
       H    12.31065  -17.40529   -7.37749
       O    12.90297  -16.83474   -6.82266
      H1    12.84406  -17.21403   -5.92110
       H    14.83073   -8.08954   -4.08677
       O    14.64155   -8.64987   -3.29744
      H1    13.98584   -8.07036   -2.88925
       H    11.94866   -7.45728   -0.88760
       O    12.68667   -7.42322   -1.53996
      H1    13.38140   -7.42618   -0.89435
       H     9.30486  -15.45296   -4.80862
       O    10.06789  -15.23942   -5.41475
      H1    10.26343  -14.33566   -5.12732
       H     8.16746  -15.32904   -7.75985
       O     8.84229  -16.03902   -7.59707
      H1     9.31072  -15.68995   -6.77840
       H     8.06359  -11.69320   -7.04361
       O     7.11438  -11.79330   -7.12909
      H1     6.92401  -10.99495   -7.61187
       H    18.07214  -12.61218   -7.08481
       O    18.97998  -12.68712   -6.66893
      H1    19.12118  -13.61327   -6.72099
       H    10.64745  -16.90948    0.13938
       O    10.53204  -16.59237    1.05140
      H1    10.47986  -15.63410    0.81583
       H    16.66625  -14.68330    0.93482
       O    17.16488  -14.75822    1.78459
      H1    16.72901  -15.52455    2.18616
       H     7.51119  -16.72918   -3.07391
       O     8.00560  -16.24117   -3.83068
      H1     7.31206  -16.00436   -4.47654
       H    16.49302  -13.28331   -8.50574
       O    16.75421  -12.37018   -8.24509
      H1    17.43640  -12.27015   -8.99524
       H     9.11192  -17.79828    1.18222
       O     8.24064  -18.24353    1.04000
      H1     7.92525  -17.79598    0.23562
       H    16.02885  -13.61036   -2.85156
       O    16.08447  -12.86540   -3.47119
      H1    16.70069  -12.29004   -3.00978
       H    13.38437  -14.55863    2.12520
       O    13.47062  -15.41198    2.56211
      H1    13.64168  -16.08440    1.85030
       H     6.53841  -18.44345   -2.05717
       O     6.36290  -17.52760   -1.98870
      H1     5.40496  -17.48549   -2.08355
       H    15.72914   -8.47373   -0.82860
       O    14.98021   -8.21394   -0.25654
      H1    15.07875   -8.88512    0.54714
       H    10.34515  -12.51429   -7.42508
       O     9.83395  -11.78088   -7.07583
      H1    10.52854  -11.12243   -6.98324
       H    13.25718  -12.46313   -4.20538
       O    12.69493  -12.83510   -3.46350
      H1    12.77363  -12.12980   -2.80006
       H    11.50916  -11.06866    2.68912
       O    11.92887  -11.01137    1.83901
      H1    11.26882  -10.50305    1.33668
       H    18.69045  -18.34991   -0.92974
       O    18.51027  -19.16908   -0.44046
      H1    18.94575  -19.01215    0.40291
       H    18.91909  -16.18359   -7.64009
       O    19.41828  -15.48074   -7.22638
      H1    19.97931  -16.07210   -6.72529
       H    15.76214  -10.90780   -7.09878
       O    15.51443  -10.56345   -6.24199
      H1    14.88943   -9.80796   -6.44715
       H    10.55973  -18.08078   -9.46939
       O     9.94673  -17.40335   -9.71682
      H1     9.78623  -17.06574   -8.82156
       H    14.41417  -14.64585    5.75617
       O    14.68062  -15.41058    5.19711
      H1    14.06556  -15.37608    4.44835
       H    17.43372  -17.82520   -6.09176
       O    17.75023  -18.55052   -6.64554
      H1    16.90738  -19.08541   -6.59618
       H    15.25771  -18.81298   -1.77806
       O    14.71172  -18.07125   -2.05459
      H1    14.06707  -18.15177   -1.35956
       H    15.35577  -14.73616   -1.19494
       O    15.30541  -14.21097   -0.44829
      H1    14.39419  -14.04791   -0.24955
       H     9.16937  -11.00661   -3.98856
       O     8.37563  -10.51567   -3.68150
      H1     7.79111  -11.26079   -3.67907
       H    10.68744   -7.87840   -7.12082
       O    10.94738   -8.70757   -6.72640
      H1    10.84324   -8.53919   -5.78969
       H     8.72379  -12.83226   -2.49003
       O     8.71759  -13.54888   -1.86750
      H1     8.60523  -14.27168   -2.49749
       H    11.24594  -15.06291    4.19003
       O    11.34611  -14.28602    4.80585
      H1    11.70630  -13.60835    4.24667
       H     9.08165  -19.67508   -5.71298
       O     9.40174  -19.01419   -5.02940
      H1     9.06382  -18.16811   -5.28064
       H    15.15877  -15.26661   -5.38210
       O    14.81145  -14.44978   -5.78578
      H1    15.41737  -13.81804   -5.40971
       H    16.62868  -10.41317   -4.80140
       O    17.00852   -9.89464   -4.04090
      H1    16.17707   -9.55882   -3.66305
       H    10.99598  -16.88726    2.86690
       O    11.05446  -16.89105    3.83564
      H1    11.91683  -17.29601    3.97926
       H    11.88593  -13.81661   -8.24990
       O    10.89645  -13.87298   -8.20768
      H1    10.91004  -14.81796   -8.05517
       H     9.22665  -10.20743   -0.75977
       O     9.94650  -10.84542   -0.64472
      H1     9.36154  -11.62187   -0.48879
       H    15.05706  -14.43696   -8.78409
       O    15.83093  -14.78547   -9.25345
      H1    15.54937  -14.68159  -10.18106
       H    18.55119  -15.53366    1.33279
       O    19.22994  -15.87874    0.73374
      H1    20.06218  -15.61373    1.25901
       H     9.64387  -13.66675    1.29436
       O    10.22868  -13.89798    0.50530
      H1     9.61486  -13.89831   -0.27883
       H    13.63031  -13.20162   -7.66465
       O    13.58624  -14.00483   -8.22796
      H1    13.71625  -14.75146   -7.61570
       H    14.71706  -17.77286    0.64821
       O    13.90184  -17.24483    0.49067
      H1    14.13107  -16.57367   -0.16210
       H    13.89477  -10.39834    1.61902
       O    14.82722  -10.35121    1.94669
      H1    15.29918  -10.99807    1.45765
       H    16.14479  -16.49996   -4.39606
       O    16.00984  -16.94759   -5.21889
      H1    15.23631  -17.48374   -4.97557
       H    17.73445  -12.23575    1.01820
       O    17.15965  -11.51696    0.91281
      H1    17.77163  -10.82571    1.01627
       H    10.38659  -18.88042   -1.22032
       O    11.21584  -18.41185   -0.99334
      H1    11.23715  -17.76717   -1.71738

