180
frame 1 | Written by MDAnalysis XYZWriter (release 2.4.3)
       H   -15.47329  -10.45788   12.55486
       O   -15.20254  -10.15777   13.43284
      H1   -15.03429   -9.23891   13.21879
       H   -10.98007   -2.86353   16.18008
       O   -11.28475   -1.96488   16.38501
      H1   -10.54792   -1.35498   16.40068
       H    -8.18055  -11.83184   14.18905
       O    -7.65990  -11.00987   14.35685
      H1    -7.08165  -10.91214   13.60418
       H    -6.72942   -5.47682   16.48427
       O    -6.37151   -4.67355   16.05802
      H1    -7.13174   -4.42404   15.53837
       H   -12.09316  -16.52430   17.50310
       O   -12.50904  -16.96382   18.25321
      H1   -13.16523  -16.33234   18.54135
       H   -19.11548   -6.11750   16.19085
       O   -19.73603   -6.52266   16.82256
      H1   -19.60831   -7.45169   16.63308
       H   -14.07904  -12.39371   16.53649
       O   -13.72941  -12.24672   15.70284
      H1   -13.93140  -13.09958   15.25237
       H   -11.22236   -5.24958   15.98530
       O   -10.99163   -4.60628   16.65222
      H1   -11.80032   -4.53762   17.21774
       H   -14.60947  -13.77935   18.61059
       O   -14.47263  -14.41447   17.92650
      H1   -13.60262  -14.24188   17.51999
       H    -7.89131   -8.82318   13.55082
       O    -8.37452   -8.04977   13.81467
      H1    -8.97914   -8.49866   14.38993
       H    -7.02036   -8.58110   11.50572
       O    -6.70799   -9.38132   12.06565
      H1    -5.93445   -8.92434   12.41121
       H   -16.77930  -11.79272   16.21301
       O   -16.85431  -11.49272   15.29365
      H1   -15.97250  -11.44207   15.00632
       H    -9.52985   -1.42114   19.24426
       O   -10.15062   -2.18597   19.43530
      H1   -10.56283   -2.40223   18.57226
       H    -7.16011   -7.90270   16.41963
       O    -7.53694   -6.97618   16.31440
      H1    -8.14851   -7.08531   15.48531
       H    -6.61912   -9.87288   17.25450
       O    -6.39733   -9.56851   16.30947
      H1    -6.73286  -10.39809   15.85490
       H   -11.04802  -12.19276   12.20950
       O   -11.00379  -12.51861   11.29465
      H1   -11.85367  -12.89540   11.18229
       H    -9.24987   -8.45842   18.04024
       O   -10.18423   -8.84346   17.98636
      H1   -10.07740   -9.81043   18.22850
       H   -19.31528   -6.36482   11.91375
       O   -18.36922   -6.39169   12.05026
      H1   -18.25496   -7.09563   12.67840
       H   -17.22987  -10.95264    9.61209
       O   -16.95919  -11.17307    8.74506
      H1   -17.48485  -10.57502    8.19783
       H   -14.44790   -5.99214   11.14805
       O   -14.35238   -6.70752   10.52129
      H1   -14.02292   -6.31495    9.68612
       H   -13.55426   -2.49577   18.93994
       O   -13.23058   -2.56895   19.87837
      H1   -12.61034   -1.82325   19.77291
       H    -9.26366   -4.13818   13.52656
       O    -8.97274   -3.92217   14.41370
      H1    -9.72779   -4.09562   14.97500
       H   -18.36901  -15.35072   15.51758
       O   -18.86551  -14.62953   15.22232
      H1   -19.73837  -14.95976   15.36482
       H   -18.44234  -10.64421   12.18958
       O   -17.84144  -11.04742   11.58309
      H1   -17.81179  -11.98633   11.85377
       H   -18.30120   -5.22310   13.73528
       O   -18.41645   -4.71102   14.51931
      H1   -17.84761   -3.94747   14.58197
       H   -14.28525   -5.65794   17.94290
       O   -13.38727   -5.69041   17.52867
      H1   -13.00342   -6.26727   18.20206
       H    -6.34063   -5.82928   14.41357
       O    -6.23808   -5.85305   13.44950
      H1    -6.74662   -6.68574   13.23197
       H   -15.01132  -11.60164    8.72744
       O   -14.14299  -11.95969    8.58863
      H1   -14.23349  -12.91552    8.47354
       H   -13.31419   -7.45639   12.22145
       O   -13.79971   -7.66588   13.06581
      H1   -13.30630   -7.18926   13.75319
       H   -15.10402   -8.88293   15.91968
       O   -14.21385   -8.70484   16.37371
      H1   -13.64645   -9.23049   15.73368
       H   -13.35290   -8.33908   17.95553
       O   -12.71148   -8.27745   18.68428
      H1   -11.93819   -8.63107   18.29159
       H    -8.01774  -15.75958   15.92528
       O    -8.47756  -15.02026   16.39450
      H1    -8.75998  -14.42314   15.69488
       H   -11.22217   -8.92341   14.90125
       O   -10.60065   -8.25206   15.21904
      H1   -10.45568   -8.66450   16.07969
       H   -11.34553  -15.46841   14.60641
       O   -11.34162  -14.47490   14.50023
      H1   -12.29498  -14.29253   14.49493
       H   -12.92011  -14.96575   11.28754
       O   -12.78712  -14.48475   10.45565
      H1   -13.71439  -14.52769   10.03555
       H   -14.83960   -4.05842   13.01666
       O   -14.68156   -4.27405   12.10019
      H1   -13.80865   -3.82891   11.88974
       H   -11.34389  -14.21713   16.37500
       O   -11.57243  -14.09875   17.34275
      H1   -11.07040  -13.30956   17.62302
       H    -8.79706  -13.97661   19.69860
       O    -8.51473  -13.43749   18.94918
      H1    -8.87979  -13.91962   18.16380
       H   -11.84662   -7.09379   15.30412
       O   -12.50646   -6.38506   15.02409
      H1   -13.19359   -6.31344   15.73627
       H   -13.26473   -9.80527   13.94360
       O   -12.46922  -10.30190   14.16441
      H1   -12.82011  -11.07254   14.67133
       H   -18.38631  -13.22857   16.77978
       O   -17.99808  -12.75198   17.51470
      H1   -18.70636  -12.14744   17.69363
       H   -17.86286  -10.26393   14.44230
       O   -18.46703   -9.61027   14.22971
      H1   -17.83393   -8.86383   14.16513
       H   -17.00982   -3.74777   19.70296
       O   -17.40639   -3.86440   18.83150
      H1   -18.27868   -4.13117   19.09650
       H   -16.28224   -4.49197   10.93318
       O   -16.97199   -4.65587   10.27426
      H1   -17.54297   -5.24497   10.87260
       H   -12.30185   -2.66523   10.47127
       O   -12.32001   -3.33836   11.16433
      H1   -11.35561   -3.62210   11.13184
       H   -14.20569   -2.39800   15.04117
       O   -14.39738   -3.31903   14.91173
      H1   -13.70043   -3.71551   15.48681
       H   -14.31640  -15.44301   13.64219
       O   -14.15822  -14.69802   14.23249
      H1   -14.82825  -14.09826   13.92427
       H   -18.78240  -15.16254   19.30553
       O   -17.89895  -15.14346   19.77763
      H1   -17.45222  -14.69428   18.99782
       H    -9.99237  -13.29510   13.93527
       O    -8.99437  -13.32446   13.95736
      H1    -8.80223  -13.75014   13.05930
       H   -15.86461   -6.68676   17.91105
       O   -16.15846   -5.99779   17.26483
      H1   -16.62402   -5.38496   17.85974
       H   -15.33875   -2.48006   17.00475
       O   -14.82225   -2.01861   17.69900
      H1   -14.36343   -1.32231   17.16827
       H   -10.11752  -14.14993   11.10929
       O    -9.50255  -14.91348   11.33336
      H1    -8.60282  -14.57603   11.17244
       H   -17.46483  -14.20778   13.25643
       O   -17.15588  -13.30962   13.10952
      H1   -17.28726  -12.74354   13.94435
       H   -12.05586  -10.45135    7.49025
       O   -12.13150   -9.49216    7.65029
      H1   -12.64081   -9.53194    8.42648
       H   -16.77286   -6.04173    9.35505
       O   -16.93451   -6.90079    8.92407
      H1   -16.13933   -7.42786    9.15910
       H    -9.97567  -11.99967   18.65613
       O   -10.62947  -11.52985   18.13392
      H1   -11.42879  -11.64196   18.64470
       H   -16.61272   -6.55556   15.18079
       O   -16.63812   -7.21916   14.44711
      H1   -15.77506   -7.03058   14.03285
       H    -8.28837   -3.60654   11.77520
       O    -9.19415   -3.97974   11.71273
      H1    -8.90425   -4.59306   11.01775
       H    -9.26418   -3.84650   18.83786
       O    -9.21671   -4.77867   18.61182
      H1    -9.86935   -4.79066   17.90615
       H   -19.29505   -2.44580   16.58706
       O   -18.31224   -2.45032   16.51326
      H1   -18.11784   -2.97574   17.34215

