180
frame 4 | Written by MDAnalysis XYZWriter (release 2.4.3)
       H    -1.36448    1.50913   14.23054
       O    -1.62109    2.41223   14.03651
      H1    -0.83266    2.84446   13.70311
       H     5.93998    4.59620   18.04461
       O     6.08462    5.38622   17.49894
      H1     5.37658    5.95614   17.89850
       H     4.60705   11.10538   15.02188
       O     5.42080   11.37381   14.48342
      H1     5.91043   11.96084   15.05825
       H    10.98089    1.70759   19.59489
       O    10.63169    1.85165   18.70545
      H1    11.23549    2.48203   18.31155
       H     6.75510    3.28421   11.95323
       O     6.46176    2.79010   11.14568
      H1     5.83528    2.19237   11.62633
       H     3.78907    8.02389   14.84195
       O     3.01089    8.58232   15.11565
      H1     2.34938    8.28183   14.44186
       H     8.01758    0.83382   13.12664
       O     8.96297    1.01762   13.30827
      H1     9.28372    1.24947   12.41698
       H    10.01362   10.05706   10.77252
       O     9.48964    9.59007   11.46302
      H1     8.65595    9.50232   10.99588
       H     0.53693    3.44449   16.22306
       O    -0.18558    2.95099   16.67219
      H1    -0.65292    2.55132   15.90444
       H     8.44501    2.81935   10.43287
       O     9.31980    2.54525   10.70171
      H1     9.85231    2.31409    9.90411
       H     9.08396   10.56989   17.51874
       O     8.27281   11.03501   17.90876
      H1     7.94258   10.22778   18.25008
       H     2.35096   11.09093   14.13008
       O     2.34156   11.13076   13.18069
      H1     2.33792   10.20131   12.90548
       H     4.43769   10.65277   17.27413
       O     5.01492   10.38883   18.03429
      H1     5.67586    9.89940   17.48996
       H     3.22360   -0.52708   14.15274
       O     3.67819    0.34892   14.32664
      H1     3.72075    0.42856   15.32306
       H     4.70856    4.97668   10.51408
       O     5.08795    5.12207    9.65288
      H1     4.89133    4.35220    9.15414
       H     3.94085    8.57409   10.02380
       O     3.77365    8.97773   10.95261
      H1     3.90653    8.11338   11.44173
       H     1.58066    4.06289    8.36980
       O     2.18293    3.65832    8.96095
      H1     2.28330    4.42028    9.59288
       H     6.13118   -0.07210    8.63716
       O     6.43276   -0.34287    9.51126
      H1     6.39171    0.53589    9.91784
       H    10.55539    7.33366   13.40529
       O     9.70110    7.75093   13.69998
      H1     9.62092    8.31943   12.96624
       H     4.75613    2.34223    7.40857
       O     4.72142    3.27442    7.72087
      H1     3.84809    3.32935    8.12399
       H     5.38350    6.84087   12.55227
       O     4.42838    6.81297   12.67525
      H1     4.20634    6.05391   12.09779
       H     1.22029    0.71868   10.87296
       O     1.85438    0.02591   10.67574
      H1     1.82245   -0.05307    9.74310
       H     5.19285   -0.30714   13.63945
       O     6.12076   -0.50577   13.33495
      H1     6.05369   -1.47400   13.33397
       H     2.03173    5.91610   11.76725
       O     2.55650    5.16931   11.33145
      H1     2.34879    4.39083   11.89160
       H     5.29923    4.66200   14.63751
       O     4.56772    4.49372   15.23321
      H1     5.04594    4.64972   16.06817
       H     2.99270    0.80528   17.69597
       O     2.46666    0.05273   18.06820
      H1     3.15778   -0.48901   18.47495
       H     9.47378   10.48456   12.99678
       O     9.00820   10.90816   13.75437
      H1     8.90496   11.83436   13.46816
       H     0.51552    6.93774   16.38354
       O     0.22890    7.48029   15.61058
      H1    -0.61583    6.97680   15.50813
       H     7.18716    7.90144   12.55500
       O     7.53085    7.00075   12.45351
      H1     8.30172    7.13887   12.99989
       H    10.66552    4.80261   13.22594
       O    10.59137    4.51134   12.28879
      H1    10.17173    3.63312   12.36623
       H     0.50569   10.82191   16.32016
       O     0.13516   10.44252   15.51095
      H1     0.14215    9.47783   15.57811
       H     1.53265    4.92787   15.79348
       O     1.83853    4.20891   15.25507
      H1     2.76752    4.32296   15.14031
       H    10.18646    9.76363   15.32504
       O    10.34424   10.13305   16.23420
      H1    10.44534    9.30521   16.68966
       H     0.87505    5.32948   18.50338
       O     0.98992    5.95294   17.77731
      H1     1.80361    6.38425   18.00729
       H     0.99188    8.44876   17.46971
       O     1.87407    8.90602   17.62054
      H1     2.26360    8.80397   16.71206
       H     7.18777    2.07575   16.86788
       O     7.50494    2.78425   17.44384
      H1     8.41823    2.76268   17.23380
       H     0.94324    0.92460   18.97414
       O     0.21320    1.47868   19.07797
      H1     0.05665    1.87509   18.18254
       H     3.10868    2.76170   17.87805
       O     3.58053    2.25443   17.17739
      H1     3.20337    2.78250   16.47793
       H     8.53058    8.61068   15.21341
       O     7.57907    8.64719   15.51004
      H1     7.47057    9.51044   15.04140
       H     3.82774    1.18939   12.79220
       O     4.00105    1.40516   11.84154
      H1     3.33662    0.86026   11.38596
       H    11.49357    5.78369   15.12321
       O    10.95565    5.02522   14.72819
      H1    10.10881    5.17409   15.06195
       H     0.36702    2.47204   11.41822
       O    -0.26607    1.86591   11.05475
      H1    -0.74984    2.57376   10.59253
       H    11.62396    4.30144   17.75918
       O    12.21012    3.83540   17.16643
      H1    12.01944    4.25820   16.28440
       H     5.12341    7.10395    7.67429
       O     4.39962    7.16308    8.31299
      H1     4.59345    6.41945    8.94479
       H     6.35280    0.18934   15.12455
       O     6.54570    0.50094   16.03011
      H1     7.25756   -0.23554   16.06489
       H     5.27182   -0.19791   18.98121
       O     4.77441   -1.04047   19.20473
      H1     5.45371   -1.69723   18.84987
       H    -1.25749    5.00856   13.59904
       O    -0.69751    4.78605   12.87741
      H1    -0.86692    5.46443   12.28191
       H    10.77124    6.85318   10.36764
       O    10.29017    6.57365    9.59953
      H1     9.37417    6.52350    9.95514
       H     0.33894    7.37484   12.07805
       O     1.03489    7.56384   12.79534
      H1     0.47087    7.39120   13.56604
       H     7.06496    9.21987    8.71775
       O     7.27237    9.17947    9.63945
      H1     7.55988    8.25018    9.77306
       H     7.06824    4.52708   14.44365
       O     6.83746    4.48420   13.47169
      H1     7.16796    5.36663   13.13905
       H     5.40845    9.29327   11.90960
       O     6.00628    9.37609   12.66242
      H1     5.61943   10.13170   13.16239
       H     7.97477    5.27115    8.22753
       O     7.69972    5.92387    8.85703
      H1     7.01923    5.56025    9.42994
       H     2.80292    2.45910   12.41494
       O     1.97122    2.88892   12.65113
      H1     2.10092    3.23350   13.58050
       H     9.72402    0.27516   18.42942
       O     9.34572   -0.43556   17.92603
      H1     9.29467   -1.26408   18.45272
       H     9.02183   -0.31707   16.20465
       O     8.88160   -0.70978   15.31044
      H1     9.16307    0.04613   14.72091
       H     1.83249    8.95172   10.43096
       O     0.86944    9.21143   10.50511
      H1     0.67752    9.16795    9.60790
       H     8.01823    6.34886   15.31329
       O     8.33344    5.52161   15.73479
      H1     7.56657    5.48169   16.33381
       H     2.74108    2.90630   19.79022
       O     2.31458    3.41878   19.10097
      H1     2.71674    4.25967   19.22607
       H    10.43546    8.36171   19.26968
       O    10.05916    8.09601   18.42066
      H1    10.45450    7.19200   18.28810

