180
frame 1 | Written by MDAnalysis XYZWriter (release 2.4.3)
       H   -17.08491   18.75796   13.38645
       O   -18.03048   18.62155   13.16352
      H1   -18.11269   17.72920   13.64973
       H   -14.38717   17.26794    9.61057
       O   -15.23482   17.71388    9.56326
      H1   -15.17650   18.06832    8.67016
       H    -7.84175   16.10901   17.70587
       O    -8.80659   16.16137   18.07470
      H1    -9.29180   15.80450   17.30612
       H    -8.41698   14.06855   14.29038
       O    -9.00313   14.80966   14.20669
      H1    -9.40462   14.81545   13.33169
       H   -17.05557   15.51764   17.36732
       O   -16.66077   16.33696   17.12132
      H1   -17.06287   16.91239   17.77755
       H    -2.75404   17.94643   11.48277
       O    -3.28053   18.46947   12.12252
      H1    -2.83677   19.36899   12.05876
       H   -13.63842   15.75863   16.94546
       O   -13.63040   15.01014   16.34681
      H1   -14.21564   14.37004   16.78794
       H   -13.16666    8.96506   12.74753
       O   -13.64214    9.69231   13.20617
      H1   -12.88229   10.03883   13.69408
       H   -17.17686   15.87833   14.23425
       O   -18.07359   16.22807   14.46352
      H1   -17.83679   16.68149   15.31017
       H     0.09375   19.52536   19.10519
       O    -0.04255   18.71547   18.52884
      H1     0.91905   18.45250   18.58091
       H   -14.08979   16.91056   13.31722
       O   -13.39431   17.41043   12.87963
      H1   -12.75654   17.52749   13.62705
       H    -6.13178   14.95071   12.75024
       O    -6.21973   14.79315   13.69538
      H1    -5.51623   15.43314   14.00714
       H   -13.54060   17.71926   17.44529
       O   -13.97923   17.12152   18.10876
      H1   -14.91268   17.10331   17.78200
       H    -0.84526   15.20027   15.63579
       O    -0.10189   15.09283   15.02339
      H1    -0.51820   15.17944   14.15508
       H   -19.72893   18.78325   15.80583
       O   -18.93751   19.30643   15.66055
      H1   -18.70864   19.14054   14.69770
       H    -8.96770   18.53993   12.50950
       O    -9.50713   19.29694   12.26946
      H1   -10.19098   18.84049   11.77960
       H   -14.24420   19.10182   15.20978
       O   -13.78955   18.87555   16.02915
      H1   -12.91196   18.73809   15.70792
       H    -9.84779   17.61856    9.07204
       O    -9.24915   16.85614    9.21498
      H1    -9.80775   16.07089    9.05298
       H   -10.87724   14.04336    9.68314
       O   -10.31425   14.29412    8.93003
      H1   -10.87705   13.98158    8.23015
       H    -8.78334   11.79037   11.76715
       O    -9.35102   12.36041   12.35003
      H1   -10.02815   11.75887   12.71941
       H    -6.58027   10.91836   14.98061
       O    -6.40502   10.20746   15.61007
      H1    -6.23732    9.41907   15.05061
       H   -11.16471   10.41831   14.85739
       O   -11.26128   10.60133   13.90640
      H1   -10.85633    9.83610   13.44940
       H    -8.24013   10.02667   18.21432
       O    -8.33371    9.59442   17.36326
      H1    -7.71059   10.12142   16.84121
       H    -9.47613   19.26139   17.93101
       O    -9.46716   18.65636   17.14552
      H1    -9.25183   17.78814   17.56192
       H   -17.90690   14.04214   18.92646
       O   -18.23741   14.96923   19.01348
      H1   -17.76941   15.26748   19.81622
       H   -17.44867   17.44417   11.77699
       O   -17.25092   16.81907   11.06360
      H1   -16.37972   17.17161   10.74391
       H    -6.20711   14.32429    9.11199
       O    -6.65966   14.06930    8.31040
      H1    -6.26420   14.79441    7.71836
       H    -5.74407   16.40336   18.29255
       O    -6.11191   16.10972   17.45939
      H1    -5.99349   16.93306   16.89503
       H    -6.85488   13.17452   13.89289
       O    -7.35446   12.41980   14.27590
      H1    -8.11601   12.20994   13.67496
       H   -11.00599   15.81003   11.34507
       O   -10.36390   16.39389   11.85098
      H1    -9.84057   16.85732   11.19521
       H    -8.71459   16.35109    7.53744
       O    -8.52408   15.68296    6.84497
      H1    -8.26083   14.95937    7.43764
       H    -2.38431   13.52904   17.45106
       O    -1.61911   14.09919   17.28948
      H1    -1.01088   13.33222   17.26229
       H    -0.14895   18.61991   13.65061
       O    -0.54605   19.33199   13.14923
      H1    -1.47453   19.22192   13.39276
       H    -7.65770   11.00803    9.99046
       O    -7.38100   10.77182   10.90446
      H1    -6.66674   11.40361   11.10939
       H   -14.69656   12.62327   18.70876
       O   -15.01959   13.46611   18.39680
      H1   -15.63422   13.79922   19.06675
       H    -3.68999   15.02661   15.40598
       O    -3.80360   15.77971   14.80840
      H1    -3.49734   16.54901   15.38746
       H   -11.69707   15.09400   16.20885
       O   -10.70939   15.17806   16.30610
      H1   -10.41384   14.72994   15.50175
       H   -10.73626   13.14877   11.59593
       O   -11.57817   13.27335   11.12690
      H1   -11.82532   12.41654   10.69727
       H    -4.22850   12.85908   11.59006
       O    -4.87349   12.50153   12.22570
      H1    -4.73048   12.76707   13.17333
       H    -4.83797   13.15515   15.76270
       O    -4.48708   12.67793   14.99936
      H1    -3.51788   12.66478   15.26710
       H    -6.62405   16.92946   11.14402
       O    -6.40794   16.79328   10.20500
      H1    -7.29010   16.93130    9.82301
       H    -3.42438   17.72093    9.46587
       O    -2.95063   16.98271    9.83386
      H1    -2.05919   17.09818    9.47849
       H   -17.37565   18.96443   19.19442
       O   -17.84608   18.42303   18.61370
      H1   -18.11388   19.10267   17.94479
       H   -13.44970   15.84390   10.46475
       O   -12.82793   16.45132   10.09175
      H1   -12.71370   16.93357   10.90997
       H   -16.15456   12.66607   12.79590
       O   -16.07605   12.71908   13.75886
      H1   -17.00049   12.66024   14.03085
       H    -5.03338   14.82137   17.47529
       O    -4.58932   13.95660   17.47734
      H1    -5.08314   13.46952   18.12640
       H    -2.32994   14.84126   12.39275
       O    -1.77457   15.51467   12.87980
      H1    -2.42234   15.75913   13.53884
       H    -7.48813   18.74308   16.71907
       O    -6.56502   18.59295   16.46390
      H1    -6.10676   19.44679   16.47233
       H    -7.52081   17.68550   14.12142
       O    -7.75778   17.35274   13.23147
      H1    -8.15413   16.51501   13.54135
       H   -16.59032   13.29312   10.91053
       O   -15.70178   12.82150   10.85918
      H1   -14.99577   13.42387   11.12737
       H   -10.22343    9.77117   16.83928
       O   -11.04328    9.46255   16.48284
      H1   -11.57698    9.44411   17.28748
       H   -16.93654   12.62931   17.65957
       O   -17.94136   12.59752   17.70817
      H1   -18.27719   12.32897   16.85321
       H   -14.76630   15.33999   14.99748
       O   -15.27884   15.36467   14.17599
      H1   -15.48369   14.40218   14.03176
       H    -5.24921   18.03956    9.86508
       O    -4.80527   18.88144    9.98456
      H1    -4.42874   18.76088   10.87971
       H   -12.51719   18.45611    7.59238
       O   -11.90455   18.95989    8.14190
      H1   -11.77292   19.65079    7.49815
       H   -10.98822   18.53857   15.23622
       O   -11.54237   17.72649   15.03406
      H1   -11.06670   17.06295   15.64354
       H    -1.32533   17.69164   18.65804
       O    -2.23318   17.27251   18.59632
      H1    -2.09238   16.30751   18.76092
       H    -3.26538   17.68233   17.08514
       O    -3.23914   18.12971   16.18898
      H1    -2.70189   18.91260   16.34924
       H    -9.63514   14.96287   19.00492
       O   -10.34361   14.30549   19.40412
      H1   -10.99089   14.35561   18.70072
       H   -13.16141   13.82817   12.02827
       O   -13.85185   14.46108   11.94786
      H1   -13.89523   14.71397   12.85300

