180
frame 6 | Written by MDAnalysis XYZWriter (release 2.4.3)
       H     1.32302    3.70324   -8.73505
       O     1.13425    4.63982   -8.35158
      H1     1.18375    5.02680   -9.22014
       H    -3.53744    9.27378   -2.61240
       O    -4.25210    8.77688   -3.09278
      H1    -4.35512    9.34093   -3.85605
       H    -6.73321    2.41291   -5.30918
       O    -6.98789    3.32355   -5.14034
      H1    -6.67813    3.83822   -5.87513
       H    -2.05288   12.27909   -7.39732
       O    -2.00097   11.32940   -7.54849
      H1    -1.31400   11.33207   -8.22595
       H    -5.35262    8.35992   -0.52966
       O    -4.71666    7.97573    0.07662
      H1    -4.85853    8.41851    0.96680
       H    -1.98846    3.55701   -4.97067
       O    -1.09426    3.52597   -5.31576
      H1    -0.65126    4.28612   -4.82118
       H    -0.32545   11.22565   -1.06758
       O     0.39112   11.12570   -1.69312
      H1     0.25912   10.28366   -2.17695
       H    -0.49302    8.17185   -8.09053
       O    -0.76009    7.96989   -7.20598
      H1    -0.82776    8.81556   -6.72641
       H    -4.40511    3.70351   -3.55583
       O    -3.65070    3.81985   -4.11897
      H1    -3.82978    3.09893   -4.72840
       H    -2.86853    0.59538   -4.15407
       O    -2.58582    0.01778   -3.42731
      H1    -1.76262    0.49329   -3.18445
       H    -6.03071    4.51221   -2.20162
       O    -5.94641    3.58934   -2.62071
      H1    -6.32548    3.72455   -3.52444
       H    -0.87576    5.92417   -3.67347
       O     0.03574    5.57145   -3.54371
      H1    -0.11013    5.33450   -2.63418
       H     0.97177    8.23069   -9.40949
       O     0.05468    8.17949   -9.68184
      H1    -0.02546    7.32997  -10.16339
       H    -2.99603    4.64329  -10.47409
       O    -3.24907    3.70450  -10.31290
      H1    -2.59726    3.34007   -9.71065
       H    -3.01490    9.91810    1.31679
       O    -3.11257   10.80493    1.62709
      H1    -2.67421   10.85377    2.53465
       H    -8.71182    8.29011   -7.54957
       O    -8.35146    8.22934   -6.67528
      H1    -8.89262    7.59592   -6.16135
       H    -6.75675    7.90017   -7.95242
       O    -6.21748    7.98420   -8.76290
      H1    -6.14552    7.01667   -8.88457
       H    -6.73220    5.67346   -0.56753
       O    -5.83384    5.56144   -0.96257
      H1    -5.38335    6.44043   -0.54784
       H    -5.22067   13.82197   -2.37403
       O    -4.54102   13.35369   -2.88641
      H1    -4.16210   12.76104   -2.25529
       H    -1.35727    7.82024   -1.03275
       O    -1.84511    8.39181   -0.41582
      H1    -2.53558    7.75620   -0.09616
       H    -1.00911    5.23976    0.41237
       O    -1.91336    5.17507    0.84380
      H1    -1.71725    5.22353    1.79602
       H    -2.23087   11.37846   -4.25999
       O    -1.32227   11.52476   -4.03608
      H1    -1.23036   11.16959   -3.14357
       H     4.33170    6.74063   -3.83680
       O     4.17113    6.40424   -2.89485
      H1     5.10412    6.44937   -2.61162
       H    -7.98001   11.55324   -4.37721
       O    -7.38512   12.14605   -3.88606
      H1    -6.74108   11.54218   -3.53486
       H    -1.27992    7.55583    1.27964
       O    -1.08310    7.84434    2.19561
      H1    -1.21326    7.02884    2.70089
       H    -6.53708    0.64864   -2.45067
       O    -6.04516   -0.02960   -2.91136
      H1    -6.28387   -0.75033   -2.29425
       H    -3.02345    6.96486   -3.99472
       O    -2.49613    6.26842   -4.38991
      H1    -2.99367    5.43382   -4.27484
       H     0.87662    4.24402   -0.56180
       O     0.56277    5.14247   -0.57774
      H1     1.22862    5.50876    0.04535
       H     3.11100    6.79759   -8.87819
       O     2.71150    7.61471   -9.18358
      H1     3.11745    7.77405  -10.07819
       H    -6.83111    2.37070   -1.73246
       O    -7.53828    1.68406   -1.58024
      H1    -7.36628    1.41125   -0.67004
       H    -2.97223    1.37951   -6.95321
       O    -3.19558    1.69770   -6.04880
      H1    -4.07824    1.31901   -5.95194
       H    -0.56087    1.76659   -8.20525
       O    -0.54926    0.83045   -8.00297
      H1     0.18607    0.53570   -8.58922
       H    -5.25342    5.02591   -8.61138
       O    -5.86674    5.08955   -9.37850
      H1    -5.29151    5.18104  -10.12941
       H    -4.73311    4.27064   -0.16312
       O    -4.40178    3.67173    0.50002
      H1    -3.53698    4.03901    0.65577
       H    -2.19964    9.93789   -1.28795
       O    -2.60937   10.62463   -1.84560
      H1    -2.36445   11.42523   -1.32932
       H    -3.75661   10.57272   -7.90803
       O    -4.05074   10.08026   -8.63870
      H1    -4.96086    9.80447   -8.37099
       H    -5.61147   11.09657   -1.22815
       O    -6.02036   10.73479   -2.09121
      H1    -5.38944   10.04166   -2.39043
       H    -8.33018    3.23345   -0.79785
       O    -8.63026    4.01165   -0.31184
      H1    -8.74892    4.73254   -0.96824
       H    -0.66449    3.98822   -8.19101
       O    -1.43795    3.37262   -8.26478
      H1    -1.88552    3.47162   -7.36900
       H     0.81677    7.16030   -5.06711
       O     1.49888    7.34820   -5.76075
      H1     0.95319    7.14246   -6.56933
       H    -7.73239    6.61941    1.08637
       O    -7.92939    6.89826    0.18733
      H1    -7.92188    7.86408    0.20945
       H    -6.60472    3.49613   -9.31738
       O    -6.98955    2.61527   -9.30913
      H1    -7.95268    2.78090   -9.39687
       H    -4.71980   12.08325   -3.98646
       O    -4.49642   11.36796   -4.64339
      H1    -4.61194   11.85117   -5.45455
       H    -2.31657    7.38576   -7.66720
       O    -3.08011    7.18301   -8.27513
      H1    -3.35322    8.10540   -8.54701
       H     3.74134    8.66278   -1.14956
       O     2.98921    8.01911   -1.16880
      H1     3.33395    7.42547   -1.89187
       H    -2.20659    7.07409  -11.27207
       O    -2.33669    6.25398  -10.70504
      H1    -2.39989    6.68012   -9.79650
       H    -3.32183    4.49878   -8.36282
       O    -3.86039    4.76494   -7.55568
      H1    -3.74972    5.68196   -7.67661
       H     0.24151    1.04113   -3.95221
       O    -0.23154    1.63868   -3.28379
      H1    -0.71810    2.24812   -3.86985
       H     3.11961    4.39929   -2.00472
       O     3.44794    3.52273   -1.73451
      H1     4.38626    3.59809   -2.00802
       H     0.18522    7.10716   -2.78461
       O     0.13230    8.00206   -2.34102
      H1     0.81460    7.90937   -1.63918
       H    -4.11729    0.88803    1.62633
       O    -4.47801    0.92896    0.74458
      H1    -4.44601    1.88606    0.71242
       H     0.73890    0.79081   -1.88825
       O     0.95259    0.67940   -0.97828
      H1     1.87276    0.38702   -0.94640
       H   -10.11263    6.16232   -1.24855
       O    -9.43165    6.21776   -1.89403
      H1    -8.61893    6.47949   -1.38044
       H    -6.04125    0.59784   -6.11919
       O    -5.65630    0.97116   -5.32744
      H1    -5.99669    0.37636   -4.58121
       H    -6.70937    9.77867   -6.45903
       O    -6.49960   10.58090   -6.95655
      H1    -7.42654   10.87932   -7.22441
       H     1.89162   10.27814   -4.52524
       O     2.57635    9.97488   -3.99332
      H1     2.28276    9.44233   -3.25257
       H    -8.68346    3.50677   -5.00162
       O    -9.62761    3.56557   -4.79798
      H1    -9.75655    4.56681   -4.79172
       H     3.78996    9.19775   -7.61725
       O     3.66450    9.23981   -6.66343
      H1     2.78411    8.84681   -6.46261
       H     0.05833   11.19425   -6.66103
       O     0.50990   10.93162   -5.85758
      H1    -0.22158   11.15988   -5.24887
       H     3.98298    6.28023   -6.99412
       O     3.84617    5.53968   -7.64095
      H1     2.95028    5.20816   -7.39578

