180
frame 4 | Written by MDAnalysis XYZWriter (release 2.4.3)
       H    16.29141   -1.04432   12.89210
       O    16.09719   -1.66602   13.64086
      H1    15.58241   -1.05340   14.25362
       H    12.59431   -6.14337   11.05321
       O    11.64314   -6.24644   10.89426
      H1    11.39930   -5.32500   10.96114
       H    19.35335    0.56544    9.96939
       O    18.67723    0.96203   10.52004
      H1    19.04296    1.34301   11.29860
       H    17.40016    3.99726    6.00461
       O    17.31795    3.46117    6.76700
      H1    16.35429    3.36515    6.84458
       H    18.52131    4.31599   10.61446
       O    18.33860    4.98793   11.35096
      H1    18.37290    4.37194   12.12588
       H    17.12164   -1.72176   18.05703
       O    16.27719   -2.05474   17.71236
      H1    15.69730   -1.66831   18.40659
       H    18.74965   -4.67806   11.51413
       O    19.07064   -3.91686   11.07258
      H1    19.34082   -3.25133   11.69032
       H    13.77499    3.13010    8.85334
       O    14.38608    3.82771    8.50408
      H1    13.94119    4.66255    8.65417
       H    16.57808    0.43638   15.98769
       O    15.82958   -0.16103   15.93397
      H1    15.91951   -0.87839   16.61061
       H    15.18863   -6.53415   11.58860
       O    14.54290   -6.62366   10.85626
      H1    15.01898   -6.31771   10.08007
       H    18.07111  -10.24891    7.35749
       O    18.08816  -11.00382    7.88738
      H1    18.87662  -11.47884    7.71956
       H    18.46404    2.14173   13.72792
       O    18.87137    2.43353   12.90587
      H1    19.60189    2.97249   13.18160
       H    13.08190   -3.98216    7.82823
       O    14.10909   -3.99258    7.89788
      H1    14.36224   -3.36142    7.17577
       H    13.56750    1.98895   13.51573
       O    13.41739    1.05779   13.32061
      H1    12.70201    1.03071   12.67301
       H    18.52607   -4.08105    6.47584
       O    18.42740   -3.14313    6.50877
      H1    18.20047   -2.96031    7.43873
       H    14.46319   -1.34002    8.86257
       O    15.07063   -1.55948    9.58830
      H1    15.69905   -2.16214    9.11110
       H    14.83649    3.38657   13.22749
       O    14.03413    3.66834   13.70161
      H1    14.22481    3.77351   14.64422
       H    12.59688   -4.24865   13.84453
       O    11.88635   -3.66237   13.48576
      H1    12.44284   -3.21659   12.84398
       H    16.56624   -6.82384    4.22974
       O    15.77911   -7.27309    4.61916
      H1    16.04093   -7.34720    5.51625
       H    14.28045   -3.68762    5.24785
       O    14.52817   -2.79607    5.57128
      H1    15.45149   -2.67830    5.31108
       H    12.53618   -1.69615   14.44735
       O    12.95447   -1.42772   15.30537
      H1    13.25332   -0.52619   15.06250
       H    19.14470   -1.15229   17.14599
       O    19.46193   -2.05965   17.35530
      H1    19.20801   -2.55581   16.56758
       H    14.42905   -8.70838    9.19602
       O    15.03014   -9.34777    8.82415
      H1    14.47241   -9.83619    8.17694
       H    18.54083    2.47868    9.66010
       O    18.58848    3.25625    9.10214
      H1    17.80042    3.31890    8.51040
       H    14.28159   -8.12288   15.02774
       O    13.87425   -8.31139   14.17596
      H1    13.34159   -9.12855   14.31416
       H    17.13597   -0.92244    4.06029
       O    17.24725   -1.85169    4.25614
      H1    17.73360   -1.96837    5.05893
       H    13.40203    0.37259    8.15735
       O    13.47919   -0.44378    7.65167
      H1    13.64155   -0.11734    6.78700
       H    17.25238    0.01061    7.21106
       O    16.91705    0.24731    8.09466
      H1    16.57257   -0.55472    8.52407
       H    17.00915   -3.97905    9.07090
       O    17.43066   -3.11950    9.02324
      H1    18.04523   -3.28924    9.76735
       H    16.00685   -0.60790   10.82155
       O    16.37588   -0.08799   11.51077
      H1    17.15516    0.39521   11.17321
       H    19.13444    0.34535    6.18119
       O    18.33137    0.69729    5.79001
      H1    18.19134    1.52499    6.29923
       H    19.28086   -3.59049    2.86876
       O    18.32909   -3.59789    2.68381
      H1    17.92275   -2.85598    3.21503
       H    15.33273   -5.05458    8.42275
       O    16.06253   -5.56368    8.83311
      H1    16.44850   -6.21195    8.26831
       H    15.61334   -8.38419   17.37138
       O    14.77411   -8.35980   16.86818
      H1    14.11824   -8.52143   17.52852
       H    19.66149   -3.96893   14.68363
       O    18.99582   -3.53561   15.28293
      H1    18.76533   -2.78029   14.74267
       H    15.24347   -7.17508   13.46252
       O    15.92438   -6.51244   13.24417
      H1    15.50495   -5.70096   13.50241
       H    11.89297   -3.04446   17.50144
       O    12.10429   -2.11181   17.72006
      H1    12.49460   -1.71185   16.83406
       H    15.35795    3.26514   10.75112
       O    15.58286    2.80942   11.56626
      H1    15.62214    1.92193   11.28110
       H    15.51235  -11.25375   11.57793
       O    14.67073  -11.71118   11.80130
      H1    14.37168  -12.01931   10.89630
       H    18.63347    2.17299   19.20724
       O    17.89620    2.16613   18.63005
      H1    17.55151    1.27108   18.79186
       H    18.41479   -6.74893    2.94421
       O    18.13782   -6.17582    3.69596
      H1    18.17335   -5.32154    3.22518
       H    11.99964   -0.26112   11.36104
       O    11.72560    0.64333   11.35510
      H1    10.94246    0.63048   11.88447
       H    15.63202    1.19314    6.13847
       O    14.96688    1.07471    5.41338
      H1    14.82152    2.00525    5.33142
       H    15.48373   -3.66525   17.48476
       O    15.27785   -4.59817   17.28133
      H1    16.12317   -5.05905   17.04959
       H    17.95551   -9.96884   14.30421
       O    17.95223  -10.77744   13.74987
      H1    18.08585  -10.36565   12.89811
       H    19.08743   -0.90115   11.17194
       O    19.43104   -1.40857   11.87514
      H1    19.19817   -1.00671   12.72370
       H    11.36428   -5.64427    7.67749
       O    11.29491   -6.52003    8.16509
      H1    11.32519   -6.18517    9.11938
       H    17.60894   -6.50640   15.75290
       O    17.67682   -5.71587   16.33697
      H1    18.13623   -5.00494   15.80441
       H    18.53792   -6.84315   11.32284
       O    18.54090   -6.57809   12.25249
      H1    17.62075   -6.40202   12.48968
       H    16.06985   -8.33918    7.44446
       O    16.63294   -7.66412    6.98690
      H1    17.47490   -8.08490    6.91740
       H    14.45203    1.07847   16.41287
       O    14.14194    2.02205   16.47386
      H1    13.17803    2.02354   16.56051
       H    18.59018   -7.60170   14.12475
       O    18.30291   -8.19703   14.85120
      H1    19.13557   -8.34915   15.28386
       H    19.14876    0.38699   14.47246
       O    18.73805   -0.45996   14.26329
      H1    17.74677   -0.43753   14.33519
       H    14.66526   -4.58261   15.30787
       O    14.46699   -4.27770   14.42533
      H1    15.02601   -3.51416   14.23298
       H    12.49443   -2.26368   10.50564
       O    12.82957   -1.85310   11.30701
      H1    13.83691   -1.87094   11.25380
       H    12.18900    2.61233    8.75654
       O    12.74297    1.90767    9.04349
      H1    12.40375    1.39175    9.79715
       H    17.43670  -10.99161   10.11166
       O    17.07189  -10.21456   10.65142
      H1    16.28022   -9.93873   10.21373
       H    18.74671   -8.32023    8.93971
       O    18.61284   -8.22285    9.89365
      H1    18.10059   -8.97579   10.28168
       H     9.81395   -4.03259    9.88768
       O    10.70105   -3.74087   10.19343
      H1    10.41947   -3.38593   11.00016
       H    18.80590    2.21049   15.87825
       O    17.91650    1.93947   15.63092
      H1    17.24528    2.61341   15.95103

