180
frame 7 | Written by MDAnalysis XYZWriter (release 2.4.3)
       H     2.89090   16.15994  -10.12361
       O     2.41323   16.00331  -10.91038
      H1     3.01274   15.40389  -11.40530
       H    -7.62536   11.65614  -12.71358
       O    -7.71728   12.60386  -12.79470
      H1    -7.99632   12.98220  -11.90344
       H    -3.91815   13.89110  -11.16148
       O    -4.26448   13.02800  -10.93636
      H1    -4.27188   12.48382  -11.70987
       H    -3.62210   14.28865  -15.46080
       O    -2.93765   14.92623  -15.57025
      H1    -3.31108   15.45976  -16.28476
       H    -3.28141   16.26665  -12.83324
       O    -3.48388   17.01212  -13.40623
      H1    -3.00464   16.83424  -14.25593
       H    -7.81886    9.72248   -6.26537
       O    -7.11967    9.15338   -5.83669
      H1    -7.53452    8.27373   -6.01980
       H    -0.48519    8.98383   -4.88695
       O    -0.76746    8.72641   -5.78435
      H1    -0.62553    9.44525   -6.38807
       H    -9.59472   11.58343   -8.42807
       O    -9.83344   10.66242   -8.47970
      H1   -10.08697   10.42868   -7.57946
       H     0.27775   16.79953  -13.38692
       O     0.35076   15.92156  -13.04792
      H1     0.98248   15.96398  -12.32641
       H     1.05312   12.69761  -13.15916
       O     1.39219   12.52908  -12.28411
      H1     0.59562   12.18157  -11.81323
       H    -4.27573    7.37736   -4.90206
       O    -4.49252    8.23645   -4.56116
      H1    -5.45368    8.38474   -4.78590
       H    -4.08391    9.48425   -3.29966
       O    -3.77052   10.09713   -2.63047
      H1    -4.37152   10.04602   -1.88250
       H    -3.44760    7.65181  -10.75568
       O    -4.03827    6.98291  -11.07944
      H1    -4.33451    7.27676  -11.92729
       H    -7.50720   11.62280   -4.03332
       O    -7.23469   12.55795   -4.17308
      H1    -7.04745   12.62012   -5.12346
       H    -0.88863   18.28687  -10.56860
       O    -0.66324   18.42478   -9.63771
      H1    -1.41590   18.83731   -9.22713
       H    -0.11756   16.41063   -5.63581
       O    -0.67133   16.79596   -4.97150
      H1    -0.70155   17.75457   -5.15385
       H    -6.53114   12.16900  -15.99145
       O    -5.86067   11.50309  -15.71313
      H1    -6.22357   10.59662  -15.59959
       H    -1.78651   13.49010  -13.80109
       O    -1.56551   13.87423  -12.93833
      H1    -0.68343   14.37928  -13.04164
       H     1.25920    9.72057  -10.00045
       O     0.62815    9.30063  -10.63529
      H1    -0.24629    9.64531  -10.38940
       H    -1.12174   10.10485  -14.16184
       O    -0.91231   10.83483  -14.74967
      H1    -1.73885   10.96092  -15.36085
       H    -5.80844   14.24093  -10.43315
       O    -6.61292   14.74236  -10.20461
      H1    -6.26140   15.63107  -10.11590
       H     1.58430   14.07640   -6.24392
       O     1.47753   14.45045   -7.12849
      H1     1.64430   13.70997   -7.73508
       H    -6.21648   10.85004   -8.97546
       O    -5.50028   11.38942   -8.43667
      H1    -5.44037   12.21994   -8.92229
       H    -0.66890    6.01104   -7.94398
       O    -0.63606    6.96792   -8.09336
      H1    -0.83969    7.32780   -7.20753
       H    -7.37850    9.88014  -11.76437
       O    -7.60455    9.77949  -12.68905
      H1    -8.53506    9.41268  -12.76291
       H     0.80381    7.43515  -10.77409
       O     0.84203    6.56026  -11.20723
      H1     1.05274    6.77722  -12.12043
       H     2.29997   10.48903   -5.01431
       O     2.08401   11.10777   -5.72368
      H1     1.16519   11.31688   -5.56422
       H    -3.68293   11.02608  -13.82022
       O    -3.47993   11.97008  -13.70148
      H1    -4.33340   12.42040  -13.85574
       H    -7.51588   17.59715   -6.20032
       O    -7.71803   16.64385   -6.01744
      H1    -7.02430   16.09125   -6.41212
       H    -5.16046   17.04856  -13.31115
       O    -6.12702   16.96757  -13.26386
      H1    -6.39860   17.24241  -14.13810
       H    -1.56122   11.64073  -10.50051
       O    -1.05812   11.62049  -11.35613
      H1    -1.43282   12.23591  -11.95647
       H    -3.15642   16.08283   -5.53009
       O    -3.90589   16.69009   -5.49958
      H1    -4.44427   16.54885   -4.71484
       H    -4.28603   11.77354   -3.01795
       O    -4.61094   12.69033   -3.05062
      H1    -5.56450   12.56758   -3.40709
       H    -5.66565   16.94279   -8.43331
       O    -5.95399   17.36900   -9.23172
      H1    -5.18551   17.72299   -9.55231
       H    -1.15371   10.83397   -8.11689
       O    -0.38197   10.64815   -7.55026
      H1     0.31653   10.47225   -8.19791
       H    -6.06797   14.54355   -6.99808
       O    -5.76018   15.44687   -7.14100
      H1    -5.00456   15.73526   -6.55531
       H    -8.09753   15.81814  -15.64594
       O    -8.01965   14.97426  -15.11099
      H1    -7.13160   14.85933  -14.76825
       H    -1.43267    8.05757   -9.05754
       O    -1.99523    8.64148   -9.67881
      H1    -2.71245    9.04745   -9.14766
       H    -4.30953   10.15063   -7.46546
       O    -4.04533    9.16417   -7.35719
      H1    -3.70381    9.07434   -6.48172
       H    -9.79951   13.30329   -8.29793
       O    -9.53413   13.06435   -7.41269
      H1   -10.27017   13.45887   -6.92490
       H    -2.33884   18.42569  -12.64102
       O    -1.47030   18.70445  -12.24346
      H1    -1.61472   19.66139  -12.09111
       H    -6.26450   13.68815  -13.20792
       O    -5.59177   14.14751  -13.71190
      H1    -5.49707   15.08531  -13.42097
       H     1.72634   13.17754  -10.61371
       O     1.92071   13.40313   -9.69785
      H1     1.97405   14.38078   -9.75399
       H    -6.73669    9.22818  -14.29301
       O    -6.64455    9.00786  -15.23365
      H1    -7.58182    9.03812  -15.58350
       H    -5.48470    7.33405   -9.69747
       O    -5.95947    7.71658   -8.93379
      H1    -5.25651    8.21493   -8.43036
       H    -6.12908   12.32414   -7.18228
       O    -6.65604   12.95766   -6.72711
      H1    -7.54776   13.01003   -7.12443
       H    -3.53415   19.71155   -5.09442
       O    -3.21400   19.28969   -5.90363
      H1    -3.43308   18.36606   -5.79332
       H     1.84466   12.51662  -15.09781
       O     0.95839   12.91313  -14.96182
      H1     0.45782   12.07884  -14.98822
       H    -7.37175    8.94392   -9.90444
       O    -7.51564    9.92605   -9.94286
      H1    -8.33704   10.08671   -9.41778
       H    -3.14715    8.79202  -13.56981
       O    -3.92069    9.13440  -14.01627
      H1    -4.38088    8.33597  -14.31814
       H    -1.94167   13.88127   -6.30404
       O    -1.58447   14.00134   -7.19406
      H1    -0.62664   13.89396   -7.18184
       H    -2.42229   14.91446  -11.82709
       O    -3.21864   15.37345  -11.40433
      H1    -2.96492   15.83038  -10.59592
       H    -1.07713    7.52902  -12.78269
       O    -1.38914    8.45823  -12.96821
      H1    -1.21308    8.90297  -12.11446
       H    -2.73373   13.49601   -3.85306
       O    -2.10227   14.02388   -4.43548
      H1    -1.58251   14.50295   -3.81254
       H     2.69118   10.65253  -13.07871
       O     2.63069    9.78202  -12.76192
      H1     1.78575    9.85889  -12.22170
       H     2.85724   10.55965   -8.16620
       O     2.24653   10.83385   -8.88883
      H1     2.36801   11.79651   -8.87664
       H    -3.12889   12.55597   -9.59200
       O    -2.52693   12.05159   -9.02431
      H1    -2.32948   12.75456   -8.35854
       H    -2.66896   15.37839   -8.29340
       O    -2.89913   16.15513   -8.81017
      H1    -2.56991   16.90388   -8.30319
       H    -9.94114   13.77418  -10.54927
       O    -9.09453   13.46914  -10.10569
      H1    -8.55784   14.28998  -10.26123
       H     0.83356   15.86860   -7.61968
       O     0.46773   16.74180   -7.71004
      H1    -0.05950   16.73721   -8.52434

