180
frame 12 | Written by MDAnalysis XYZWriter (release 2.4.3)
       H     5.78058    7.74658  -15.43202
       O     5.50081    7.27894  -14.63320
      H1     4.89265    7.97785  -14.32524
       H     1.61191    3.51618  -10.59178
       O     2.05497    4.33419  -10.61822
      H1     1.23535    4.87198  -10.57746
       H     7.88648   -0.21213  -18.69757
       O     8.08083   -0.92322  -19.30297
      H1     9.02191   -0.74938  -19.54752
       H     2.49024   10.26090  -12.36268
       O     3.38048    9.92887  -12.17510
      H1     3.71208   10.67777  -11.67526
       H     7.18023   12.63932  -19.31458
       O     7.77825   11.86076  -19.03886
      H1     7.08695   11.22543  -18.91986
       H     7.50175   11.70411  -15.81032
       O     8.23963   11.20092  -15.40575
      H1     8.93484   11.85928  -15.58662
       H    10.93810    5.16325  -17.25108
       O    10.32944    4.71271  -17.90499
      H1    10.50436    3.78945  -17.63742
       H    -3.78742    7.44801  -18.76075
       O    -3.55218    6.61715  -19.22274
      H1    -3.07163    6.01818  -18.61518
       H     3.67043    4.19114  -11.52681
       O     4.56310    3.79763  -11.80167
      H1     4.98013    4.46677  -12.35068
       H     3.00360   -1.80988  -11.52851
       O     2.95826   -2.01305  -12.45258
      H1     3.83644   -1.85996  -12.82426
       H    -1.42042    5.58604  -10.64794
       O    -0.75018    4.88105  -10.50816
      H1    -0.55640    4.65034  -11.46169
       H     5.44358   -0.41924  -13.32222
       O     5.43921   -1.39324  -13.45558
      H1     6.09152   -1.78606  -12.82178
       H     7.22124    1.48983  -12.19609
       O     7.55808    1.30474  -13.08554
      H1     7.58994    2.18894  -13.52075
       H     9.69327    9.56612  -19.07652
       O    10.22786    9.42407  -19.86298
      H1    10.80961   10.20103  -19.79930
       H     1.73593    0.52830  -10.13968
       O     2.60019    0.90200  -10.45648
      H1     2.36144    0.98523  -11.39653
       H     9.56424    6.28314  -18.02121
       O     8.89418    7.01432  -17.90433
      H1     9.41044    7.73737  -17.51435
       H     4.59219   10.38634  -18.51295
       O     5.47171   10.35724  -18.11034
      H1     5.75383    9.50524  -18.42379
       H    -0.24539    3.03044  -17.87433
       O    -0.37535    3.51889  -17.05127
      H1    -0.97931    2.95761  -16.51336
       H     6.06049    0.29878  -16.23915
       O     5.13211    0.31446  -15.90194
      H1     5.15279    0.97960  -15.20636
       H     8.97089    3.26111  -10.59633
       O     9.29420    3.79029  -11.33521
      H1    10.23205    3.63903  -11.25776
       H    11.25765    1.66341  -16.85857
       O    10.41718    1.86027  -17.40030
      H1     9.76259    1.33072  -16.85928
       H    12.60128    4.39527  -16.19700
       O    12.14558    5.02332  -15.68837
      H1    11.67510    4.52094  -15.02694
       H     2.21189    1.55719  -14.01865
       O     1.88613    1.01536  -13.32404
      H1     2.20082    0.13790  -13.56872
       H     4.06846    4.84353  -16.88122
       O     3.80335    5.29911  -16.05385
      H1     4.69802    5.50628  -15.73515
       H     3.12579    4.21099  -19.20515
       O     2.76728    3.45815  -18.72756
      H1     1.79212    3.59628  -18.72335
       H     9.04189    8.16396  -14.58160
       O     9.55064    7.44280  -14.95388
      H1    10.45104    7.78260  -15.03131
       H     7.20098    4.70956  -16.35045
       O     6.71530    5.43106  -16.81118
      H1     7.43900    6.06535  -17.09137
       H     1.29557    6.88377  -19.91831
       O     2.09988    6.47844  -19.60072
      H1     2.11568    6.70740  -18.65393
       H     1.74958    7.99701  -17.25102
       O     1.32560    7.14786  -16.91661
      H1     2.11157    6.75923  -16.49818
       H     8.52510    3.70058  -14.47478
       O     7.73221    3.35478  -14.89587
      H1     7.14931    3.83906  -14.31655
       H     3.81821   10.66766  -15.34717
       O     4.44945    9.97468  -15.53842
      H1     4.84084   10.21988  -16.43862
       H     1.37618    3.26853  -15.74736
       O     2.23030    3.19091  -15.28190
      H1     2.64790    4.00704  -15.61818
       H     8.93287    0.50890  -12.52737
       O     9.50908   -0.19481  -12.22708
      H1     9.73445   -0.05095  -11.30762
       H     7.25132    5.53077  -10.30836
       O     7.68343    6.23732  -10.78973
      H1     8.52306    5.87552  -11.01567
       H     4.48657    2.97717  -13.31351
       O     4.77705    2.67847  -14.16684
      H1     4.10640    2.83760  -14.81738
       H     9.50941    9.00954  -16.27161
       O     9.49700    9.48762  -17.09362
      H1     8.73073   10.02636  -16.83445
       H    -3.04609    1.77416  -18.65901
       O    -2.55560    1.53260  -19.51471
      H1    -2.65884    0.54182  -19.58370
       H     3.47325    7.46973   -9.77525
       O     3.20484    8.42354   -9.87602
      H1     3.14763    8.64211  -10.80854
       H    10.56155    7.32017  -11.22608
       O    10.29200    6.63808  -11.87536
      H1    10.16666    7.24239  -12.62358
       H     7.37703    9.05956  -12.53356
       O     8.20189    8.70734  -12.09103
      H1     7.82550    8.03447  -11.50130
       H    -0.37449   10.93502  -13.06546
       O    -0.65484   10.28494  -13.76491
      H1    -0.37566    9.52131  -13.24593
       H     5.05126   -3.72305  -16.11655
       O     5.69677   -3.41363  -15.39408
      H1     5.22577   -2.67122  -14.91435
       H    -0.43010    7.81580  -16.41690
       O    -1.13837    8.26243  -15.89826
      H1    -0.71088    8.99544  -15.44289
       H     9.56394    5.55182  -14.42011
       O     9.78429    4.65652  -14.08129
      H1     9.68224    4.83098  -13.12683
       H     7.91490    1.66217  -15.74434
       O     8.22757    0.81859  -16.06423
      H1     8.00885    0.25741  -15.30104
       H     6.56319    6.01393  -13.74994
       O     6.67111    5.29062  -13.05597
      H1     7.25831    5.72009  -12.44591
       H     1.84279   10.21504  -19.50853
       O     1.54164    9.73022  -18.71634
      H1     0.76956   10.31883  -18.47458
       H     0.29393    7.41366  -13.23997
       O    -0.13717    7.89296  -12.43650
      H1    -0.96280    7.36451  -12.26071
       H    -1.37008    4.39988  -13.21513
       O    -0.49282    4.07567  -13.13454
      H1    -0.50881    3.13981  -13.19888
       H     6.39658    7.91740  -19.99727
       O     6.78763    8.32488  -19.16771
      H1     7.54480    7.81366  -18.82550
       H    -2.41411    2.99991  -14.77827
       O    -1.96661    2.25522  -15.27405
      H1    -2.60620    2.06379  -16.02608
       H     6.33329    3.62488   -9.17460
       O     6.71661    3.66982  -10.04084
      H1     5.89177    3.65091  -10.56292
       H     7.26564    4.48798  -18.29991
       O     7.45621    3.84674  -19.06277
      H1     8.42108    3.63254  -18.86403
       H     1.42051   -0.21112  -16.75862
       O     0.92375   -1.00546  -16.48957
      H1     1.18338   -1.59159  -17.20060
       H    -1.12631    1.52529  -13.99447
       O    -0.93864    1.35357  -13.02612
      H1     0.00033    1.04879  -13.02933
       H     3.82970    0.76683  -17.02722
       O     3.16380    0.83722  -17.79487
      H1     3.22976    1.80293  -17.99627
       H    -3.33010    4.99873  -16.77307
       O    -2.83792    4.42261  -17.38165
      H1    -1.94660    4.37553  -17.05048
       H     5.81456   10.22105  -13.90898
       O     6.58724   10.40808  -13.36589
      H1     7.22954   10.71856  -14.05751
       H     1.04496   -1.99330  -14.78493
       O     0.82662   -2.55552  -14.02377
      H1     1.68330   -2.70328  -13.60427
       H     3.20555    5.75645   -7.90432
       O     3.64905    5.73344   -8.81350
      H1     3.08749    5.03265   -9.29563

