180
frame 7 | Written by MDAnalysis XYZWriter (release 2.4.3)
       H    -1.55149   15.88867   -1.87811
       O    -1.93526   16.46397   -1.21248
      H1    -1.24884   17.08825   -0.93085
       H    -3.27183    9.21589   -2.67405
       O    -3.88333    8.84315   -3.32468
      H1    -3.91436    9.54824   -4.02034
       H    -4.61823   17.79560   -8.25383
       O    -3.70324   18.00502   -8.53168
      H1    -3.36951   18.43851   -7.70627
       H    -2.54730   11.81073   -7.70400
       O    -2.02150   10.99085   -7.71478
      H1    -1.53227   11.16391   -8.48211
       H    -3.80980   16.25381   -4.76671
       O    -2.96303   15.85514   -4.59282
      H1    -3.26348   15.14677   -3.97818
       H    -2.86559    8.39621  -13.71478
       O    -2.41509    8.87051  -12.97946
      H1    -3.21765    9.33327  -12.57393
       H    -0.04054    8.72472   -7.99156
       O    -0.44333    8.51678   -7.12436
      H1    -0.95394    9.32482   -6.98258
       H    -5.18237   12.37284   -7.17973
       O    -4.26705   12.69059   -6.97910
      H1    -4.49348   13.45031   -6.39381
       H    -6.00479   18.00071   -4.94891
       O    -5.55110   17.25139   -4.54124
      H1    -6.08383   16.50227   -4.85754
       H    -3.98109   15.35988  -13.40262
       O    -4.81906   15.08821  -13.05891
      H1    -5.46852   15.70959  -13.49681
       H    -7.01102    8.84586  -11.33592
       O    -7.44519    9.47320  -10.68723
      H1    -6.87738    9.16379   -9.95432
       H    -9.05811    7.89129   -7.59003
       O    -8.69946    8.02923   -6.68082
      H1    -9.21766    7.34844   -6.19630
       H    -8.13236   17.35848   -2.94696
       O    -7.43621   17.74367   -2.35990
      H1    -6.68083   17.44647   -2.93130
       H    -6.81510    8.37041   -7.61941
       O    -6.37466    8.13458   -8.49290
      H1    -6.59923    7.19767   -8.63730
       H    -6.87961   11.32780  -10.68135
       O    -6.26137   12.11404  -10.75042
      H1    -6.72937   12.55815  -11.50263
       H    -2.08889   17.22442   -4.27386
       O    -1.52790   17.99971   -4.19466
      H1    -1.13833   17.87752   -5.06689
       H    -3.82693   14.16427   -1.86367
       O    -3.55183   13.76501   -2.67578
      H1    -2.71920   13.42686   -2.35951
       H     1.29397   13.43808   -7.04694
       O     0.63909   13.73214   -7.65227
      H1     0.08046   14.30594   -7.12424
       H    -6.53649   18.18673   -8.06820
       O    -6.44997   17.39025   -8.62432
      H1    -6.52479   17.80713   -9.53168
       H    -3.76092   11.87709   -0.89898
       O    -4.56704   11.92073   -0.39093
      H1    -5.09354   12.50116   -1.00668
       H     1.26401    9.81231  -10.95722
       O     1.45997   10.33044  -11.74609
      H1     0.93264   11.09783  -11.45037
       H    -0.06307   13.59183   -2.41931
       O    -0.72412   13.98905   -3.00373
      H1    -0.78832   13.39513   -3.78046
       H    -1.01341   12.18468  -10.43196
       O    -0.42296   12.06975   -9.64029
      H1    -0.00881   12.91013   -9.58598
       H     2.62297   14.46578   -4.48921
       O     2.27101   13.81130   -5.13903
      H1     1.59794   13.26518   -4.68443
       H    -1.35544   12.93131   -5.95145
       O    -1.31772   12.36236   -5.18800
      H1    -2.05353   11.76899   -5.20893
       H    -9.03740   14.37892   -7.50791
       O    -8.73966   13.66460   -6.88019
      H1    -9.14898   13.99738   -6.06005
       H    -2.75416   16.60498   -9.00522
       O    -2.48194   15.70254   -9.34403
      H1    -3.27164   15.14217   -9.38212
       H   -11.78874   11.95929  -10.09794
       O   -11.40835   11.98723   -9.22857
      H1   -10.44987   12.05661   -9.40702
       H    -9.71613   14.68895  -10.93817
       O    -9.01135   14.01600  -10.96714
      H1    -8.25738   14.62687  -10.74621
       H    -2.05765   15.43798   -7.46373
       O    -1.75670   14.85875   -6.75546
      H1    -2.22730   15.20866   -5.91585
       H   -10.64010   15.37955   -7.97173
       O    -9.87216   15.80724   -8.34454
      H1    -9.85364   16.56631   -7.77853
       H    -7.49807   11.43148   -3.72775
       O    -6.68411   11.90761   -3.37700
      H1    -6.20111   11.29240   -2.79793
       H    -5.94037    8.10365  -13.64576
       O    -6.11546    8.24985  -12.72715
      H1    -5.31936    8.78569  -12.57747
       H    -5.01114   13.12178   -9.67462
       O    -4.18488   13.57818   -9.52656
      H1    -4.33645   13.56603   -8.54002
       H    -6.95958   14.15217   -5.59942
       O    -6.05450   14.20924   -5.28214
      H1    -6.04402   13.68821   -4.48134
       H    -6.60052   15.95082   -9.68787
       O    -6.74996   15.60236  -10.57212
      H1    -5.84669   15.21172  -10.75964
       H    -8.34390   13.93336   -2.84820
       O    -8.82475   13.97489   -3.67199
      H1    -9.62173   13.47518   -3.55527
       H    -3.36841    7.25717   -3.44336
       O    -2.90698    6.40402   -3.23739
      H1    -3.51813    5.72316   -3.52683
       H    -0.65356   13.08342  -12.84531
       O     0.25928   12.98689  -12.87429
      H1     0.55257   13.15619  -13.81095
       H    -1.29000   16.18839  -12.00185
       O    -2.23777   16.48927  -11.86619
      H1    -2.39922   16.30324  -10.92862
       H    -8.77014   12.94286   -9.52662
       O    -8.71800   12.07614   -9.05659
      H1    -9.06648   12.39283   -8.19223
       H    -3.02113   11.79371  -11.69545
       O    -2.36632   12.50036  -11.69041
      H1    -2.84820   13.36030  -11.58427
       H    -1.73894    9.98973   -1.19984
       O    -2.11408   10.64428   -1.82583
      H1    -1.42196   11.31016   -1.71478
       H    -3.33766    9.95283   -8.29836
       O    -3.95833    9.47563   -8.92369
      H1    -4.79626    9.38061   -8.50136
       H    -5.77730    9.97312   -0.66918
       O    -6.26128    9.58837   -1.42195
      H1    -5.54609    9.04651   -1.82228
       H    -9.03153    9.75386   -5.18433
       O    -9.07168   10.61962   -4.73797
      H1    -9.67604   10.37016   -4.01804
       H   -10.40173    9.88884   -8.76331
       O    -9.96100    9.18504   -9.25274
      H1    -9.46079    9.75161   -9.86264
       H     0.89727    7.04550   -4.78942
       O     1.40036    7.61085   -5.38985
      H1     0.70383    7.92673   -6.02777
       H    -3.87998   11.90643   -3.94386
       O    -3.80501   11.28640   -4.64490
      H1    -4.15652   11.73685   -5.44973
       H    -4.85706   11.30217  -11.22652
       O    -4.22318   10.56047  -11.37753
      H1    -4.18644   10.10465  -10.49383
       H    -1.64647    7.55745   -8.03818
       O    -2.44980    7.17022   -8.45292
      H1    -3.03434    7.96677   -8.49159
       H    -1.89332    7.77596  -11.54365
       O    -1.92528    6.97970  -11.00639
      H1    -2.07815    7.28128  -10.12632
       H    -2.64686   18.60365   -5.33614
       O    -3.09384   19.00438   -6.16769
      H1    -3.94000   19.33966   -5.80421
       H    -3.91252    4.36042   -7.41996
       O    -4.57717    5.00163   -7.33647
      H1    -4.02788    5.72827   -7.66558
       H    -7.37985   12.95691   -0.41955
       O    -7.27220   13.41523   -1.23057
      H1    -7.03146   12.69231   -1.89105
       H    -6.77989   11.76326   -6.18735
       O    -6.59425   11.37195   -7.08033
      H1    -7.31795   11.76197   -7.68962
       H    -0.13981   17.83420   -7.50196
       O    -0.04756   17.72963   -6.50117
      H1     0.36775   16.84559   -6.38561
       H     1.32394   15.36302   -8.26232
       O     1.63131   16.28982   -8.21230
      H1     2.13767   16.30398   -9.06384
       H     0.78717   11.57668   -7.23014
       O     1.11694   11.33939   -6.36790
      H1     0.31061   11.39705   -5.85063
       H    -9.57703   16.01489   -4.01732
       O    -9.21562   16.90788   -4.19976
      H1   -10.05168   17.33015   -4.39725

