180
frame 11 | Written by MDAnalysis XYZWriter (release 2.4.3)
       H   -13.70144    8.58133   15.45888
       O   -13.17905    7.89974   15.97908
      H1   -13.02260    8.40850   16.79544
       H   -16.87701   19.34281   13.28736
       O   -17.71346   18.83788   13.28873
      H1   -17.48453   18.06728   13.85546
       H   -15.14557   15.09987    5.42582
       O   -14.31543   15.20119    5.90776
      H1   -13.94998   15.81759    5.27154
       H   -16.49824    7.60687    9.78508
       O   -16.63276    7.86425   10.72104
      H1   -17.15528    8.70922   10.65200
       H   -13.18996    7.69347   11.57842
       O   -14.00104    7.72120   12.11836
      H1   -14.63868    7.79426   11.36722
       H   -14.28591   15.88108   10.10967
       O   -14.31621   16.84578   10.06370
      H1   -13.83829   17.08634    9.23030
       H   -10.49664   15.51068   13.79568
       O   -10.04226   16.10449   14.39603
      H1    -9.99525   16.87564   13.79798
       H   -14.06245   16.31127   17.30675
       O   -13.86479   15.84194   16.48721
      H1   -13.78923   14.89294   16.66912
       H   -12.73933   10.99129   13.82598
       O   -12.07020   11.46618   13.35271
      H1   -11.42277   11.79113   13.94597
       H   -17.17372   16.25954   14.94864
       O   -17.76422   16.99861   15.14667
      H1   -17.35851   17.34899   15.98857
       H   -14.11119   17.82064   13.21188
       O   -13.22262   17.95055   13.54246
      H1   -13.35235   17.58783   14.42241
       H   -16.56393   11.50662    7.59352
       O   -17.27135   11.52476    6.89027
      H1   -17.68279   12.42297    7.04230
       H   -14.93341    9.75264   14.38446
       O   -13.97040    9.77991   14.11512
      H1   -14.02082    8.98990   13.43106
       H   -19.56269   10.05875    8.42779
       O   -18.88230   10.67917    8.66145
      H1   -18.39702   10.72372    7.74318
       H   -10.98571   16.32433   10.70028
       O   -10.35474   16.19964    9.95974
      H1   -10.87124   15.58441    9.38757
       H   -17.14109   14.93973    3.58108
       O   -16.79527   14.57613    4.37828
      H1   -17.63491   14.37510    4.84423
       H   -11.75352   13.49976    8.33941
       O   -10.91689   13.79806    8.74697
      H1   -11.06020   13.48990    9.65293
       H    -9.54525   12.56926   13.49025
       O    -9.87140   13.21438   14.14167
      H1   -10.10942   12.53950   14.79817
       H   -16.20109   10.94936   14.24580
       O   -16.30644   10.39406   15.04384
      H1   -16.87955    9.63418   14.84882
       H   -10.47362   11.18694    8.45668
       O   -10.75657   10.31251    8.73184
      H1   -10.92577    9.83669    7.89007
       H   -17.72770   17.22838    9.94523
       O   -17.44586   16.29790    9.85457
      H1   -16.50367   16.34930    9.71198
       H   -15.62163    7.12119    5.87090
       O   -15.67677    8.02147    6.22159
      H1   -15.99114    8.49251    5.42654
       H   -11.64136    7.26678    9.88518
       O   -12.07833    8.11817    9.75771
      H1   -11.40942    8.78149    9.58270
       H   -17.35975   16.71048    7.83883
       O   -17.77221   16.37897    6.99732
      H1   -17.24408   16.79428    6.31282
       H   -17.05801   10.42521    5.03558
       O   -17.38701    9.52688    4.83821
      H1   -17.04240    9.38218    3.93493
       H   -17.79153   11.05007   10.49659
       O   -17.02895   10.79066   11.01461
      H1   -16.33931   11.32423   10.51579
       H    -9.99875   18.41268   11.81868
       O   -10.36393   18.37152   12.72045
      H1   -11.33858   18.26706   12.49902
       H   -11.25086   17.74892    7.27259
       O   -10.37574   17.79852    6.87677
      H1    -9.88093   17.73779    7.70925
       H    -8.38385   11.24269   11.54006
       O    -8.37773   11.92589   12.25628
      H1    -8.61388   12.77518   11.81178
       H   -13.09497    7.24236    8.35783
       O   -13.44786    6.48817    7.86555
      H1   -13.10088    6.75371    6.95122
       H   -13.41860   12.51071   17.71279
       O   -13.91843   13.25117   17.33910
      H1   -13.89863   13.86733   18.06021
       H   -15.27028   18.58377    5.84409
       O   -14.45975   19.08866    6.02796
      H1   -14.85639   19.82388    6.49597
       H   -12.22245   16.73441   16.31840
       O   -11.80699   17.61010   16.09299
      H1   -11.10112   17.27308   15.55111
       H   -11.84312   12.35959   11.79101
       O   -12.30033   12.74388   11.01080
      H1   -12.89806   12.06614   10.72323
       H    -8.61488   14.67898   12.29188
       O    -8.59879   14.43813   11.37140
      H1    -9.34314   14.95042   10.95516
       H   -10.40879   12.99842    7.07671
       O   -10.55798   12.46873    6.28569
      H1   -10.30868   13.00551    5.51548
       H   -12.92945   15.91582    3.20447
       O   -13.19786   16.58200    3.80770
      H1   -13.02113   17.40289    3.31210
       H   -11.85091   14.36381   11.63602
       O   -11.83254   15.20274   12.19939
      H1   -12.79147   15.25943   12.17262
       H   -14.22573   11.40507    7.59453
       O   -14.70570   10.62468    7.93516
      H1   -14.53056    9.88695    7.36692
       H   -13.36877   17.94847    6.86385
       O   -12.98120   17.23862    7.37437
      H1   -13.32291   16.46881    6.92340
       H   -16.83181    6.40861    7.77137
       O   -16.27865    6.18573    8.55297
      H1   -15.41425    6.52906    8.21867
       H   -16.25418   12.32606   12.69553
       O   -16.85695   12.51501   13.44683
      H1   -17.70604   12.12740   13.09495
       H   -14.31933   10.44004    5.06283
       O   -13.36047   10.53395    5.21611
      H1   -13.06359   10.65079    4.32260
       H   -10.46504   16.36702    5.98457
       O   -10.60877   15.78923    5.25543
      H1   -11.40739   16.12230    4.80469
       H   -18.26898   18.72355   11.65628
       O   -18.48421   18.49646   10.69020
      H1   -18.21956   19.36741   10.33386
       H   -17.20036   13.17692    9.94332
       O   -16.25917   13.32207    9.72923
      H1   -15.90626   13.90746   10.38120
       H   -13.71275   13.68342    2.75122
       O   -14.34134   12.94717    2.68497
      H1   -14.74135   12.83155    3.59329
       H   -17.69496    6.87643   11.77126
       O   -18.34261    6.51070   12.38609
      H1   -18.26430    5.54192   12.26723
       H   -17.15083   18.49375    5.09330
       O   -16.65035   17.70037    4.92968
      H1   -16.75236   17.58811    3.96255
       H   -19.38471   14.12777    6.15175
       O   -18.60909   13.82800    6.57923
      H1   -18.26553   14.65903    6.91612
       H   -18.85152   14.49997   11.77278
       O   -18.90610   14.89509   12.62322
      H1   -18.95573   15.86248   12.46999
       H   -18.10035   13.26895   16.98825
       O   -18.29101   14.17926   17.09911
      H1   -19.03675   14.46136   16.48907
       H   -15.35407   15.22574   14.81594
       O   -15.95908   15.28150   14.07510
      H1   -16.42253   14.44194   14.09620
       H   -11.19895    8.36548   12.91681
       O   -10.91736    8.98978   12.26820
      H1   -11.23125    9.80796   12.71795
       H   -13.72116   13.82134    7.00252
       O   -13.24006   13.11851    7.46078
      H1   -12.53367   12.92237    6.73777
       H   -13.44306    9.88321   10.65069
       O   -14.01714   10.70590   10.61217
      H1   -13.98654   10.65157    9.66969
       H   -14.13897   13.51898   12.28108
       O   -14.55904   14.27414   11.88634
      H1   -14.95916   14.67737   12.65689
       H   -18.32755    8.32241   13.27804
       O   -18.58547    9.16227   13.71163
      H1   -18.95487    9.75222   13.04990
       H   -17.50307   11.22004   16.15799
       O   -17.77382   11.57600   17.00593
      H1   -17.04450   11.29852   17.56143
       H   -16.35916   12.88850    4.52674
       O   -15.89272   12.10125    4.74360
      H1   -16.02228   12.01278    5.72015

