180
frame 3 | Written by MDAnalysis XYZWriter (release 2.4.3)
       H    -2.39029    4.02717    4.54352
       O    -2.92436    4.32171    3.78303
      H1    -3.67843    4.73859    4.33351
       H    -4.46537    6.70991   10.31322
       O    -3.71882    6.14116   10.06543
      H1    -3.60626    6.46206    9.14716
       H    -5.61150    7.56961   -1.99046
       O    -6.42535    7.62443   -1.42948
      H1    -5.91634    8.03119   -0.63751
       H    -6.99814    8.52557    7.61243
       O    -6.72573    9.34599    7.15914
      H1    -7.52770    9.87596    7.46123
       H    -0.82916   10.19230    5.92789
       O    -1.36551    9.68380    5.30163
      H1    -0.73102    9.19823    4.77558
       H    -3.60787   13.72475    5.26152
       O    -4.20910   13.03203    5.02407
      H1    -4.40222   12.67629    5.89977
       H   -11.31783   10.29200    2.20464
       O   -11.31994   11.24464    2.19328
      H1   -10.45375   11.47676    1.82768
       H   -10.94862    2.35368    4.37546
       O   -10.91879    1.60120    5.00143
      H1   -11.54967    0.97748    4.54163
       H    -9.16618   11.49367    8.51921
       O    -8.80010   10.65922    8.30099
      H1    -9.54640    9.98914    8.41537
       H    -9.86890    4.98165    9.26343
       O    -9.37447    5.69873    9.52616
      H1    -8.95399    5.47339   10.42239
       H    -3.44808    8.77212    3.10031
       O    -4.34965    8.88836    3.18978
      H1    -4.28364    9.85686    3.16812
       H   -11.05351   12.62643    9.67450
       O   -10.49622   12.94529    8.94263
      H1   -11.03025   12.92482    8.13871
       H   -11.33829    3.24895    7.96455
       O   -11.23740    4.22107    7.89566
      H1   -10.96658    4.32960    6.95580
       H    -8.27673    2.83130    6.86937
       O    -8.87540    2.11360    7.10965
      H1    -9.61055    2.17100    6.45465
       H   -11.66065    9.47440    7.52416
       O   -10.90264    8.96303    7.90355
      H1   -10.85714    8.17890    7.31036
       H    -7.25032    4.54212   -1.18971
       O    -6.25008    4.76982   -1.38551
      H1    -6.26413    5.77539   -1.30852
       H    -7.83554   13.38664    2.29372
       O    -8.00935   12.52997    2.69942
      H1    -7.12006   12.18939    2.87434
       H    -7.54697    4.30075    5.71729
       O    -6.95065    4.27165    6.51446
      H1    -6.14633    4.53140    6.04237
       H    -5.83364    6.16497    4.52744
       O    -5.42794    5.30439    4.47973
      H1    -5.58867    5.12534    3.52387
       H    -5.64547    8.39238    1.79289
       O    -6.18535    8.70408    1.07331
      H1    -6.79526    7.96928    0.95875
       H   -11.15488    8.02089    2.50895
       O   -10.88414    8.51883    1.75658
      H1   -11.55309    8.19318    1.15008
       H   -11.02585    9.06873   11.88358
       O   -11.45418    9.53247   11.08348
      H1   -11.13794    9.01847   10.35143
       H    -9.08206   11.21455   -1.83448
       O    -9.73591   11.00632   -1.07735
      H1    -9.51539   10.05723   -1.04052
       H   -10.83798    5.52256    2.72515
       O   -10.00403    5.25058    2.33498
      H1   -10.31680    4.39191    1.99930
       H    -6.90490    2.42050    3.71817
       O    -7.83933    2.50982    3.52789
      H1    -8.06392    1.65459    4.00214
       H    -6.27155   10.52817    1.13246
       O    -6.25236   11.47538    0.85073
      H1    -7.25301   11.58329    0.98716
       H    -8.08126    8.94970    4.22363
       O    -8.99247    9.10835    4.56375
      H1    -8.88085    9.99908    4.85661
       H    -6.63842    8.39137    5.53600
       O    -6.48311    7.82250    4.78492
      H1    -5.72916    8.26466    4.41238
       H    -7.65078   11.20062    9.94176
       O    -7.24890   11.16928   10.80407
      H1    -6.47195   11.79561   10.78165
       H   -11.23024    6.32487    9.62634
       O   -12.21944    6.13724    9.45573
      H1   -12.09677    5.57264    8.72993
       H    -8.74935    6.06652    1.37116
       O    -7.85232    6.32680    1.09558
      H1    -7.42672    5.50408    0.97825
       H    -5.66973   11.12826    6.89293
       O    -5.21044   11.85087    7.37326
      H1    -5.90210   12.52368    7.55902
       H    -5.98450    9.73545   11.13500
       O    -5.39706    8.98591   11.10732
      H1    -4.92412    9.10829   10.27473
       H    -9.10165   12.20921    3.90724
       O    -9.89569   11.98647    4.45313
      H1   -10.53929   11.85968    3.71174
       H   -14.82652   10.02206    0.42231
       O   -13.97301    9.92514    0.82629
      H1   -14.02669   10.34453    1.69191
       H    -5.47152   11.76178    4.14828
       O    -6.41789   11.32455    4.39458
      H1    -6.84007   12.07297    4.80491
       H    -7.24246    5.60106    7.37791
       O    -7.59679    6.42347    7.83765
      H1    -8.37999    6.01882    8.33558
       H   -12.90066   11.46750    6.84949
       O   -13.48822   10.70109    6.82429
      H1   -13.26473   10.25775    6.01296
       H    -6.89960   14.84626    4.30609
       O    -6.15001   15.44951    3.98533
      H1    -6.44822   15.41592    3.04813
       H    -9.85898    0.93205    1.77417
       O   -10.07830    1.83500    2.14986
      H1    -9.32229    2.08407    2.73118
       H   -11.96244    8.90521    4.25433
       O   -12.25756    9.80391    4.56160
      H1   -11.36238   10.12466    4.69200
       H    -5.72030   11.34557   -1.08676
       O    -5.65452   11.23245   -2.03135
      H1    -4.65979   10.98863   -2.08578
       H    -8.50604   12.40027    5.69065
       O    -7.77254   12.86837    6.12281
      H1    -8.13148   13.75966    6.16212
       H    -9.33480   15.23514    4.60530
       O    -9.21865   15.36128    3.64858
      H1   -10.05447   14.95870    3.29189
       H    -9.87032    4.47511    4.11310
       O    -9.69723    4.60612    5.05958
      H1    -9.59939    5.59539    5.01163
       H    -3.61265   10.44089    8.94190
       O    -3.97333    9.54281    8.81526
      H1    -4.73294    9.81682    8.21423
       H    -8.50871    8.14346   -0.57864
       O    -9.45339    8.38750   -0.54550
      H1    -9.69084    8.33990    0.38856
       H   -11.25361    6.95356    4.65597
       O   -11.76849    7.05271    3.84749
      H1   -12.68242    6.83467    4.15092
       H   -13.09104    7.69724   -0.38786
       O   -12.95609    7.27862    0.44877
      H1   -13.55912    7.76372    1.02951
       H    -2.41933   12.35357    1.85699
       O    -2.05136   12.46223    0.95015
      H1    -1.61829   13.33222    0.95641
       H    -2.55520    8.59128    8.12352
       O    -1.88169    7.98552    7.66183
      H1    -1.62882    8.52446    6.88980
       H   -14.25629    6.34815    6.28602
       O   -13.39955    5.90537    5.98493
      H1   -13.78603    5.25747    5.38095
       H   -13.70915   12.22993    2.45437
       O   -14.17687   11.81515    3.15628
      H1   -13.54552   11.28545    3.59795
       H    -9.54762    7.87021    5.61815
       O    -9.98798    7.11677    6.04519
      H1    -9.14660    6.83686    6.51323
       H    -9.36658   14.02440   -0.45942
       O    -8.41200   13.87377   -0.67428
      H1    -8.56456   13.24140   -1.40781
       H   -10.34828    5.73721   -1.96919
       O    -9.36438    5.82925   -2.08017
      H1    -9.22483    6.70825   -1.78082
       H    -3.58478   11.74439    4.05810
       O    -2.87628   11.32039    3.53980
      H1    -2.45138   10.68043    4.13272
       H   -13.01384   10.94051   -0.30642
       O   -12.51832   11.27244   -1.07915
      H1   -11.55671   11.21058   -0.81557
       H   -12.24158   13.60464    5.92182
       O   -11.65162   13.03860    6.37667
      H1   -11.09232   12.72352    5.61367
       H    -6.89660    3.91572    1.63637
       O    -6.05431    4.36737    1.82543
      H1    -5.47032    3.99172    1.19449

