180
frame 10 | Written by MDAnalysis XYZWriter (release 2.4.3)
       H    -5.08025  -11.12089   20.07389
       O    -5.73442  -10.67796   19.44477
      H1    -5.79598  -11.35240   18.78448
       H    -0.94620  -14.07155   18.44258
       O    -0.59094  -13.67572   19.22395
      H1    -0.31855  -12.78609   18.89893
       H    -9.52508  -17.07059   14.04374
       O    -9.32952  -17.62221   14.83012
      H1    -8.37205  -17.69437   14.67964
       H    -0.82719   -6.48604   18.49556
       O    -0.42522   -5.71473   18.89059
      H1    -0.53987   -5.04647   18.20328
       H     0.99284   -9.88205   14.33066
       O     0.47324   -9.18246   13.94054
      H1     0.23520   -9.61692   13.05893
       H    -7.14399  -11.88468   14.69359
       O    -6.19496  -11.95881   14.90734
      H1    -5.76600  -11.33010   14.27140
       H    -6.86912   -8.58149   11.89838
       O    -6.09658   -8.26170   11.39601
      H1    -6.58039   -8.41129   10.50150
       H    -4.43212   -5.35587   16.69260
       O    -4.76491   -5.23155   15.79666
      H1    -5.43531   -4.52984   16.03188
       H    -6.33461  -11.23867   11.38706
       O    -6.95413  -11.97085   11.24638
      H1    -7.27136  -11.73661   10.36882
       H    -9.18825  -15.61020   17.82783
       O    -9.06132  -15.72635   18.79444
      H1    -8.50064  -14.95675   18.99286
       H    -6.00796  -13.63367   11.77811
       O    -5.46948  -14.37376   11.93276
      H1    -5.65007  -14.93064   11.19749
       H   -10.29098  -13.56967   18.81734
       O   -10.71140  -12.71383   18.64969
      H1   -10.99272  -12.38767   19.51343
       H    -8.63420  -10.22036   13.01587
       O    -8.51521   -9.31719   12.58996
      H1    -9.37047   -9.27188   12.10592
       H    -3.82243  -11.09926   13.44820
       O    -4.07818  -10.34466   14.06413
      H1    -3.32388   -9.74183   13.86279
       H    -2.30717   -7.85946   17.30486
       O    -3.16154   -7.36426   17.40056
      H1    -3.67157   -8.15761   17.24308
       H    -7.92083  -16.04889   11.96380
       O    -8.75706  -16.00370   12.40280
      H1    -9.36891  -16.17976   11.70736
       H    -2.63264  -11.26172   15.96791
       O    -2.25390  -11.84984   15.33104
      H1    -2.29311  -11.32468   14.52817
       H    -3.78861   -6.11200   18.55965
       O    -4.28091   -5.29706   18.64719
      H1    -5.12640   -5.71218   18.85145
       H     0.89483   -6.32979   18.32159
       O     1.74403   -6.84190   18.06123
      H1     1.45022   -7.64205   17.66695
       H    -6.47014   -7.93297   14.89442
       O    -6.42745   -7.39387   15.67271
      H1    -5.84135   -6.72458   15.35465
       H    -4.23442  -10.71441   17.56335
       O    -3.98420   -9.93304   17.01699
      H1    -4.15674  -10.31210   16.15705
       H    -2.37054  -12.83620   11.92173
       O    -2.45250  -11.95993   12.39443
      H1    -1.86036  -11.34984   11.84974
       H    -5.55270  -13.73865   17.53361
       O    -5.64487  -12.75523   17.49141
      H1    -6.01561  -12.58768   16.59797
       H    -8.16578   -7.48140   15.88522
       O    -9.12642   -7.69933   16.00544
      H1    -9.11407   -8.35062   16.77350
       H     0.48009  -17.57427   17.01088
       O     0.87260  -16.69136   17.12707
      H1     0.08459  -16.11497   17.03087
       H     3.42753  -13.50142   19.17566
       O     2.81860  -13.03006   18.56903
      H1     2.12030  -12.74094   19.18045
       H    -2.10084  -15.57479   18.04666
       O    -1.63189  -15.28204   17.23026
      H1    -2.34996  -15.36935   16.56389
       H   -14.43098   -9.64597   18.19436
       O   -14.22437  -10.54435   17.97460
      H1   -14.63486  -10.67842   17.09066
       H    -5.99498   -5.13374   11.93119
       O    -5.46638   -5.70374   12.47390
      H1    -5.65221   -6.53026   12.06357
       H    -3.89448  -14.28781   15.53148
       O    -3.25193  -14.55973   14.85705
      H1    -2.86545  -13.63067   14.76722
       H     2.73532   -9.76984   17.47091
       O     2.20241   -9.41964   16.70787
      H1     2.69148   -9.92291   16.05400
       H   -11.71628  -10.27591   15.56638
       O   -12.50901   -9.79677   15.80569
      H1   -12.39956   -9.68056   16.78194
       H   -12.87965   -8.02367   19.18810
       O   -12.46550   -7.62791   18.42233
      H1   -13.16696   -7.29776   17.87952
       H    -6.32643   -2.60600   15.21937
       O    -6.56530   -3.29424   15.89840
      H1    -6.58603   -2.72865   16.65877
       H    -6.42326  -14.40753   13.63611
       O    -7.00711  -14.77730   14.30728
      H1    -7.86038  -14.91851   13.80967
       H   -10.58542   -7.41377   12.59676
       O   -10.37181   -6.81002   13.35116
      H1    -9.89664   -7.55411   13.83158
       H   -11.65343  -12.80129   14.68905
       O   -11.48389  -12.06679   14.11911
      H1   -11.40776  -12.46026   13.26903
       H   -12.00244  -13.70942   17.38529
       O   -12.19499  -14.10586   16.51586
      H1   -11.33045  -14.56028   16.38294
       H    -8.53830  -10.51327   17.67615
       O    -8.72905  -11.37134   17.28070
      H1    -9.25656  -11.75628   17.98410
       H    -2.31450  -11.12591   19.08359
       O    -2.85952  -11.88927   19.30935
      H1    -2.26947  -12.63962   19.30416
       H    -3.74995  -15.73975   13.51149
       O    -3.93199  -16.67730   13.29659
      H1    -4.87557  -16.66834   13.41545
       H    -6.78611  -14.46025   19.85022
       O    -7.36072  -13.74033   19.57125
      H1    -6.80182  -13.27934   18.90140
       H   -11.43338   -6.69891   15.00091
       O   -12.12613   -7.01975   15.56087
      H1   -12.03770   -8.04561   15.47804
       H    -1.19410   -8.66865   14.07484
       O    -2.11763   -8.36771   13.86831
      H1    -2.22304   -7.49160   14.30980
       H    -6.16054  -19.14594   17.54124
       O    -6.83931  -19.66160   18.00491
      H1    -7.31195  -19.00148   18.58803
       H     0.06518  -12.06216   15.00663
       O     0.92247  -11.66498   15.24380
      H1     1.48429  -12.30748   14.74436
       H    -5.78146   -8.51649   18.39178
       O    -6.11756   -7.60353   18.31453
      H1    -6.09946   -7.52897   17.31182
       H     0.35967   -5.34324   14.48663
       O    -0.22785   -5.82802   15.09076
      H1    -1.09371   -5.65371   14.62492
       H    -9.10365  -14.73655   16.05243
       O    -9.85532  -15.26919   16.26054
      H1    -9.64995  -15.96870   15.64610
       H    -8.46089  -11.12473   15.65394
       O    -8.61669  -11.23887   14.69197
      H1    -9.48260  -11.67517   14.72378
       H    -0.32393   -8.99806   16.77074
       O    -0.46978   -8.08932   17.14104
      H1    -0.30809   -7.44216   16.45519
       H     0.47909  -11.07396   17.25367
       O     0.28471  -11.28390   18.18475
      H1     0.51008  -10.49491   18.69205
       H    -6.52817  -18.18765   13.79969
       O    -6.52192  -18.05200   14.75032
      H1    -5.90329  -18.74336   14.98280
       H    -7.90114   -8.43640   19.04304
       O    -8.63922   -9.00940   18.86261
      H1    -9.07775   -9.22196   19.68077
       H    -3.67239  -18.40419   16.14693
       O    -4.30634  -18.85485   16.64401
      H1    -3.97635  -19.76935   16.82082
       H    -5.65550  -15.65590   15.90952
       O    -5.12780  -15.46828   16.74135
      H1    -4.75611  -16.27497   17.07947
       H    -9.11775   -6.33365   17.55516
       O    -8.71601   -5.79034   18.19805
      H1    -7.82201   -6.14094   18.26920
       H    -3.11744  -15.27106   11.75410
       O    -2.36882  -14.68616   11.44566
      H1    -1.59963  -15.28228   11.35788
       H    -3.41345   -9.86488    9.85622
       O    -3.81915  -10.74676   10.00159
      H1    -3.43158  -11.09964   10.78248
       H    -3.51419   -5.18420   14.58451
       O    -2.66852   -5.44749   14.07456
      H1    -2.65379   -4.64815   13.54321

