180
frame 11 | Written by MDAnalysis XYZWriter (release 2.4.3)
       H     5.19209   12.75579   18.43663
       O     4.63061   13.04586   17.73371
      H1     5.14107   12.76788   16.97242
       H    -3.06439   11.23300    9.49752
       O    -2.21042   11.19349    9.00170
      H1    -1.91448   12.08982    8.81224
       H     3.93746   11.23766   17.97892
       O     3.80624   10.27774   18.00138
      H1     4.70551    9.93131   17.91145
       H     5.79688   11.89677   14.92668
       O     5.86317   11.32396   15.71151
      H1     6.28670   10.45595   15.40894
       H     0.67628   14.64976   16.59218
       O     0.64189   15.35281   17.19914
      H1     1.45179   15.14082   17.68991
       H     4.83298   14.45786   14.07100
       O     5.31138   13.65129   13.72724
      H1     4.95399   13.53336   12.80863
       H    -4.93622   15.65150   12.43484
       O    -5.31211   15.20296   13.18427
      H1    -6.26719   15.21243   12.98418
       H    -4.18400   16.20019    7.82132
       O    -3.40524   16.16636    8.49421
      H1    -2.74430   15.64829    8.01903
       H     3.76634    6.83949   14.09870
       O     4.06529    7.76459   14.31976
      H1     3.53656    8.20694   14.99581
       H     5.75512   17.24302   11.43027
       O     4.97392   17.70197   11.13400
      H1     4.28705   17.10313   10.75268
       H    -0.78314   11.22466   18.33946
       O    -0.56160   12.13715   18.13376
      H1    -0.48836   12.22263   17.17402
       H     0.82613    8.46368    6.49541
       O     1.53019    8.95675    7.01214
      H1     1.33016    9.89413    6.81296
       H     1.90808    5.76888   13.70408
       O     2.72027    5.39494   14.10582
      H1     2.64016    5.78890   14.96389
       H     2.05160   15.30946    6.97890
       O     2.94310   15.62295    7.19474
      H1     2.85410   16.52695    7.01023
       H    -2.74538   14.40535   17.45335
       O    -3.15965   13.79677   16.86812
      H1    -3.31019   13.03134   17.48817
       H    -2.20808    6.51409   10.77962
       O    -2.15745    5.94748   11.61215
      H1    -2.83413    6.34725   12.24691
       H    -2.17040   15.33861   19.13294
       O    -1.84779   15.76761   18.30840
      H1    -1.03342   15.37047   17.94535
       H    -5.81964   11.98330   12.79011
       O    -6.28252   11.58864   12.02631
      H1    -5.57446   11.41539   11.39599
       H     2.77410   12.21255    6.41007
       O     1.98479   11.99227    6.90412
      H1     2.12523   12.26053    7.82958
       H     0.48789    9.27731   10.29232
       O     0.02967   10.11877   10.29778
      H1    -0.62620   10.05700    9.65267
       H     0.32528   14.48203    5.46804
       O     0.59349   14.27835    6.38604
      H1     1.01275   13.38898    6.44273
       H    -1.08271    9.63543   12.35438
       O    -1.80790    9.26551   12.80999
      H1    -2.02821    9.82585   13.58499
       H    -4.05388    7.83085   10.77119
       O    -3.93387    8.76873   11.10298
      H1    -3.10900    8.75791   11.62427
       H    -1.30490    5.66022    8.96257
       O    -1.57481    6.55914    8.92375
      H1    -0.79468    6.99530    8.59221
       H     2.67467   10.02967   15.06844
       O     2.53541    9.46107   15.85584
      H1     2.99137    9.85054   16.59506
       H     5.23545   13.41884   10.51863
       O     4.85533   12.67760   11.03595
      H1     3.97483   12.54611   10.58507
       H    -1.68092   16.25738   11.54295
       O    -1.36284   15.75088   10.77895
      H1    -1.41840   16.43525   10.01512
       H    -2.12943   14.55089   15.53380
       O    -1.54582   14.95964   14.80744
      H1    -1.87233   15.88336   14.63941
       H     1.42798   19.02878   13.31511
       O     0.54075   18.79110   13.61720
      H1     0.48612   17.85667   13.39165
       H    -2.33920   13.95689    6.95568
       O    -1.81722   13.92743    7.76328
      H1    -0.88761   13.92650    7.44893
       H     0.22745   15.60542   14.25965
       O     1.03371   15.93215   13.86129
      H1     0.96752   15.45548   13.00095
       H     0.09541   14.72313   11.07208
       O     0.94881   14.35734   11.27426
      H1     0.65642   13.56431   11.85875
       H     0.98758   18.12346   15.13455
       O     1.24786   17.81042   16.03441
      H1     0.94249   16.89500   16.15868
       H     2.42204   15.50388   10.39362
       O     3.10631   15.97886    9.93637
      H1     2.99643   15.83840    8.98237
       H     6.49401   12.13507   10.56604
       O     7.33496   11.67564   10.34156
      H1     7.86693   11.63962   11.14135
       H    -2.06035    8.34155   18.03192
       O    -2.57835    8.01297   17.31680
      H1    -2.05589    8.32961   16.56754
       H     1.48902    7.39027   10.26812
       O     1.16468    7.79586   11.04533
      H1     0.71985    7.14941   11.61098
       H     0.55072    7.04958   16.37582
       O     0.32826    7.72829   15.78342
      H1     1.08542    8.33438   15.84620
       H     1.46577   11.70036   12.84868
       O     0.59351   12.09387   12.60456
      H1     0.09815   11.60828   11.92297
       H    -3.77931   11.05389   14.62067
       O    -2.93312   10.69648   14.98661
      H1    -2.43508   11.51693   15.11515
       H    -3.90481   16.23979   10.45977
       O    -4.38225   16.71393   11.12718
      H1    -5.08175   17.27387   10.69593
       H    -0.48647    6.18478   12.73904
       O     0.26610    6.28788   13.30450
      H1    -0.05310    6.82646   14.12498
       H    -2.71871   11.14121   18.25409
       O    -3.52368   11.31146   17.81065
      H1    -3.30573   11.10465   16.91185
       H     6.17789   15.00114    8.94952
       O     5.73498   14.86554    9.79916
      H1     4.83020   15.25837    9.71541
       H     2.61254    8.69508   11.44627
       O     3.38059    9.28356   11.46546
      H1     4.05468    8.69392   11.73533
       H    -4.95488   13.44224   14.18977
       O    -5.00317   12.50140   14.40159
      H1    -5.32069   12.49863   15.33146
       H    -2.43293   10.52416    7.48500
       O    -2.94566   10.34842    6.67505
      H1    -3.77179   10.98429    6.70798
       H     2.93188    7.20981    9.02569
       O     2.08508    6.96911    8.63664
      H1     1.81860    7.67457    8.03123
       H    -5.30448   11.26185    9.39758
       O    -4.56055   11.34331   10.01730
      H1    -4.42779   10.37491   10.25891
       H    -6.61347   13.12764   10.93088
       O    -6.60143   14.02652   10.64444
      H1    -5.83158   14.39667   11.09033
       H     3.61614    5.34651   10.37832
       O     4.25916    6.09186   10.34178
      H1     4.43774    6.27691   11.27113
       H    -0.03073   11.78923   15.13484
       O    -0.68793   12.40781   15.50128
      H1    -0.86438   13.10534   14.81916
       H    -4.13399    7.09057   14.36119
       O    -3.75480    7.14090   13.47845
      H1    -3.40224    8.03623   13.40824
       H     5.71221    8.65758   14.61913
       O     6.66586    8.86584   14.68849
      H1     7.03270    8.05391   15.12950
       H    -2.18888   17.69398   12.91458
       O    -2.44842   17.27066   13.77708
      H1    -3.34209   17.03239   13.73201
       H     3.37338   10.40328   13.22620
       O     3.01850   11.22238   13.54494
      H1     3.70073   11.93106   13.60140
       H     4.14873   16.84989   15.44713
       O     3.67026   16.10870   15.18590
      H1     2.80935   16.49088   15.17731
       H     1.79078   13.08881   10.21658
       O     2.27684   12.42045    9.69451
      H1     1.86367   11.53806    9.89356
       H    -5.83810    8.56977   16.10054
       O    -5.06784    8.04774   15.86805
      H1    -4.32195    8.34365   16.46010
       H    -3.30094    7.37361    8.13219
       O    -3.80123    7.71609    7.33885
      H1    -3.37750    8.55387    7.15605

