180
frame 6 | Written by MDAnalysis XYZWriter (release 2.4.3)
       H    -1.97486   -9.40052  -14.87606
       O    -1.92774   -8.86829  -14.03709
      H1    -2.46677   -9.44811  -13.47717
       H    -5.65487   -7.44439  -11.32134
       O    -6.41345   -6.88369  -11.01469
      H1    -5.95034   -6.31751  -10.38738
       H    -1.42914    0.15712  -13.46931
       O    -2.36614    0.34162  -13.22343
      H1    -2.64733    0.96442  -13.90155
       H    -1.84384   -2.78558  -13.36590
       O    -2.15889   -2.24264  -14.12788
      H1    -2.32500   -1.36150  -13.72826
       H    -6.81060   -2.13625  -10.18017
       O    -7.55212   -2.10697   -9.51235
      H1    -7.35881   -1.30006   -9.00949
       H     2.93530    1.99493   -8.76351
       O     2.39525    2.32059   -9.47982
      H1     2.18605    1.45838   -9.88455
       H     0.19479   -3.48857   -7.05190
       O     0.67196   -3.23931   -6.24451
      H1     1.04931   -4.09461   -5.98168
       H     2.34859    1.18886  -12.91955
       O     3.22397    0.68892  -12.97232
      H1     3.73707    1.38994  -12.49115
       H    -5.73755   -1.86588  -13.87265
       O    -6.48255   -1.74958  -14.52215
      H1    -6.24985   -0.80056  -14.65350
       H    -4.64314   -1.37250  -15.85767
       O    -4.33486   -1.51118  -16.72994
      H1    -5.08157   -1.80457  -17.21547
       H    -1.35347   -9.27192   -8.11333
       O    -2.21536   -9.46200   -7.74745
      H1    -2.18359  -10.40891   -7.64736
       H     3.98739   -3.07941  -10.94204
       O     3.61916   -3.83506  -10.42011
      H1     3.43645   -3.49082   -9.51245
       H     1.37595   -2.93962  -12.52507
       O     1.02684   -2.71929  -11.69870
      H1     1.27039   -3.55543  -11.26347
       H     0.55316    2.46793  -12.08147
       O     1.48092    2.66407  -12.35644
      H1     1.43306    3.20520  -13.21084
       H    -1.91896    1.48621  -12.06395
       O    -1.41047    2.16262  -11.56753
      H1    -2.13951    2.77718  -11.48742
       H    -7.33858   -4.27925  -13.35485
       O    -6.54581   -4.57260  -12.90060
      H1    -6.90878   -5.35842  -12.35821
       H     3.55071   -7.64326   -7.07827
       O     3.26403   -7.38544   -7.95983
      H1     3.41895   -8.27123   -8.40845
       H    -2.99898   -4.89563  -10.21931
       O    -2.94784   -5.58760   -9.53161
      H1    -3.74165   -5.32904   -9.01600
       H     2.30377   -0.50571   -9.66306
       O     1.53055   -0.46162  -10.21512
      H1     1.46134   -1.26842  -10.65950
       H     2.51846   -3.29122   -7.22763
       O     3.26141   -3.01765   -7.82230
      H1     4.00405   -3.22636   -7.23845
       H     2.18723   -5.30037  -10.70991
       O     1.33578   -5.76846  -10.79649
      H1     0.90926   -5.65045   -9.94846
       H    -0.28966   -7.84026  -13.63279
       O     0.53488   -7.46209  -13.31120
      H1     0.23366   -7.27471  -12.37933
       H     3.46750   -6.53330  -14.82085
       O     4.26388   -6.99856  -14.94485
      H1     4.04354   -7.37071  -15.80976
       H     0.85874  -10.82996  -10.27101
       O     0.42674   -9.98250  -10.55318
      H1     1.16823   -9.48136  -10.97662
       H     2.39162   -7.64393  -11.70875
       O     2.53056   -8.60957  -11.67421
      H1     2.32566   -8.87176  -12.63765
       H     2.09954    0.76240  -16.15072
       O     2.84727    0.35543  -15.69494
      H1     2.71305    0.66723  -14.78721
       H    -0.67042   -4.36561  -16.45821
       O    -0.90457   -4.36692  -15.50264
      H1    -1.23305   -3.49903  -15.35513
       H    -2.04401  -10.64348  -10.98215
       O    -2.68427  -10.12438  -11.47540
      H1    -2.60980   -9.18823  -11.22529
       H     3.76059   -1.20904  -12.26163
       O     4.55330   -1.62151  -11.88433
      H1     5.03195   -1.95140  -12.69262
       H    -1.18108   -1.38428  -17.42937
       O    -1.54036   -0.73018  -16.89725
      H1    -2.48441   -0.86133  -16.87284
       H    -3.18189   -7.67811  -14.32170
       O    -3.80836   -7.00217  -14.24875
      H1    -4.25281   -6.98964  -15.10665
       H     6.57238   -1.23609   -9.42116
       O     5.90120   -0.62823   -9.76556
      H1     5.55883   -1.05588  -10.56294
       H    -0.72106   -3.59952  -11.66165
       O    -1.43439   -3.97251  -12.15672
      H1    -1.01287   -4.73944  -12.50551
       H     1.25028   -8.18807  -17.21154
       O     1.07407   -8.00933  -16.28325
      H1     1.29653   -7.08303  -16.14795
       H    -1.81702   -3.31206   -7.22305
       O    -1.41368   -2.75181   -7.93827
      H1    -1.83400   -1.87404   -7.76742
       H    -2.60382   -4.39822  -15.86005
       O    -3.27961   -4.09427  -16.49237
      H1    -3.49974   -3.16049  -16.23266
       H     1.34906   -7.96036   -8.20329
       O     0.44316   -8.26389   -8.34431
      H1     0.45446   -8.78775   -9.12656
       H    -1.09420   -4.66360  -18.91206
       O    -0.48596   -5.30241  -18.43536
      H1    -0.71344   -6.18041  -18.87019
       H    -2.41978   -2.54776  -18.55860
       O    -1.49572   -2.84853  -18.63717
      H1    -1.28083   -2.63036  -19.55912
       H    -0.56087    1.76659   -8.20525
       O    -0.54926    0.83045   -8.00297
      H1     0.18607    0.53570   -8.58922
       H    -5.00409   -1.19772  -11.40574
       O    -5.15597   -0.67888  -10.59884
      H1    -5.19467    0.27363  -10.78826
       H    -6.33964   -5.14510   -8.54327
       O    -5.44587   -5.46454   -8.78449
      H1    -5.16874   -6.06462   -8.05192
       H    -2.61865   -4.41166   -5.63045
       O    -2.08039   -4.65046   -6.36884
      H1    -1.31166   -5.05019   -5.92490
       H    -3.23835   -6.22296   -6.44280
       O    -4.16523   -6.49098   -6.43243
      H1    -4.54015   -5.57889   -6.29245
       H     3.94969   -2.91075  -14.48039
       O     4.91103   -2.62146  -14.51617
      H1     4.92599   -2.27138  -15.39859
       H    -0.29166   -7.04098   -6.46303
       O    -0.30270   -6.51999   -5.61657
      H1    -0.04333   -7.16482   -4.93537
       H    -1.33124   -5.71232   -8.82983
       O    -0.41043   -5.83410   -8.56394
      H1    -0.34720   -6.82733   -8.59191
       H     4.18350   -5.72193   -8.11510
       O     4.99777   -5.21400   -8.30025
      H1     4.45833   -4.51472   -8.73982
       H     1.96612   -9.16715  -14.97511
       O     2.10959   -9.81410  -14.27009
      H1     1.25514  -10.08038  -14.01498
       H    -3.95065   -7.20520  -12.34552
       O    -3.85555   -7.64195  -11.47097
      H1    -3.60303   -6.87073  -10.94775
       H     4.52045    0.10648   -8.39429
       O     3.57977    0.12249   -8.15622
      H1     3.57595   -0.59845   -7.47479
       H    -2.20605    0.13020   -8.76727
       O    -3.09867   -0.30733   -8.66715
      H1    -3.38010   -0.30175   -9.57499
       H    -3.86035   -2.86024  -13.28870
       O    -4.64442   -2.52746  -12.80150
      H1    -5.18633   -3.36579  -12.59265
       H    -4.20132   -2.11223   -9.03895
       O    -4.00314   -2.94335   -8.65715
      H1    -3.02312   -2.96661   -8.68284
       H     3.72424   -1.30840  -16.58485
       O     4.00617   -1.97441  -17.23465
      H1     3.49669   -2.80073  -17.03909
       H    -0.15710    2.05851  -15.54235
       O     0.15176    1.15028  -15.18404
      H1    -0.29749    0.56973  -15.80294
       H    -5.00500   -3.07552   -6.94973
       O    -5.09944   -3.59068   -6.07797
      H1    -6.03652   -3.86538   -6.10316
       H     0.56550   -5.19584  -15.11535
       O     1.45134   -5.63575  -14.89030
      H1     1.02394   -6.26586  -14.29841
       H    -4.93772   -5.12920  -15.96821
       O    -5.70829   -5.58547  -15.69493
      H1    -5.79561   -5.29870  -14.78661
       H     1.87712   -4.02942  -14.57404
       O     2.11642   -3.07975  -14.36381
      H1     1.47522   -2.59556  -14.85494

