180
frame 11 | Written by MDAnalysis XYZWriter (release 2.4.3)
       H   -16.49824    7.60687    9.78508
       O   -16.63276    7.86425   10.72104
      H1   -17.15528    8.70922   10.65200
       H   -18.48031   -1.55792    8.63263
       O   -18.87502   -1.77511    7.76246
      H1   -18.89180   -0.86535    7.33925
       H   -17.80980    2.50992    9.68850
       O   -18.52940    2.43046    9.08347
      H1   -18.93255    3.27458    9.15756
       H   -13.18996    7.69347   11.57842
       O   -14.00104    7.72120   12.11836
      H1   -14.63868    7.79426   11.36722
       H   -16.18448    1.26359   10.94270
       O   -16.31893    2.17913   10.72594
      H1   -15.42515    2.54508   10.82103
       H   -13.49787    3.33364    3.17090
       O   -14.19260    4.01954    3.19325
      H1   -13.90523    4.70189    2.52298
       H   -12.21797    5.32593    5.33184
       O   -12.98106    4.77043    5.51073
      H1   -13.38505    4.65935    4.59737
       H   -12.47122   -1.07530    9.84608
       O   -12.68706   -0.11791    9.79855
      H1   -13.62726   -0.20492    9.68500
       H    -8.96062    4.84921    8.80058
       O    -8.64089    5.55727    9.40526
      H1    -9.39762    5.63010   10.03327
       H   -11.32033    2.57066   11.35310
       O   -10.85241    3.28617   10.90761
      H1   -11.31530    3.37232   10.07513
       H    -9.25337    4.13174    7.06252
       O    -8.55937    3.68432    7.53821
      H1    -9.08760    2.93105    7.81526
       H   -10.47362   11.18694    8.45668
       O   -10.75657   10.31251    8.73184
      H1   -10.92577    9.83669    7.89007
       H   -12.44492    1.76726    6.50272
       O   -11.74657    2.27320    6.00435
      H1   -12.23471    3.01634    5.70003
       H   -11.49006    0.36772    4.95944
       O   -11.71682   -0.43670    4.50192
      H1   -12.32900   -0.21338    3.83303
       H    -8.05400    6.14132    5.89591
       O    -7.36144    6.77759    5.87579
      H1    -7.29985    7.06305    4.96175
       H   -15.62163    7.12119    5.87090
       O   -15.67677    8.02147    6.22159
      H1   -15.99114    8.49251    5.42654
       H   -11.64136    7.26678    9.88518
       O   -12.07833    8.11817    9.75771
      H1   -11.40942    8.78149    9.58270
       H   -18.35368    1.66871   12.27882
       O   -18.83538    0.86881   12.56722
      H1   -18.85489    0.36418   11.81341
       H    -9.97231    6.53863    3.25017
       O    -9.43989    5.76831    3.20793
      H1    -9.85126    5.41602    2.39135
       H    -8.34924    3.85748    4.26803
       O    -8.84002    3.01561    4.29272
      H1    -8.39816    2.42334    4.88839
       H   -17.05801   10.42521    5.03558
       O   -17.38701    9.52688    4.83821
      H1   -17.04240    9.38218    3.93493
       H   -17.89200    7.25828    5.78960
       O   -18.54745    7.04764    6.44748
      H1   -18.98890    6.22304    6.14342
       H    -9.74838    9.56206    4.11662
       O   -10.66993    9.66433    4.44695
      H1   -10.68379   10.51071    4.84010
       H   -16.98092    3.65862   12.55400
       O   -17.85148    3.44595   12.89497
      H1   -17.91295    3.79683   13.83362
       H   -11.13764    6.50423   12.20831
       O   -10.82492    6.01527   11.40999
      H1   -10.97793    5.09473   11.77274
       H   -12.86311   -0.41648    6.06329
       O   -13.39293   -0.02694    6.78280
      H1   -13.51439   -0.77768    7.39179
       H   -13.09497    7.24236    8.35783
       O   -13.44786    6.48817    7.86555
      H1   -13.10088    6.75371    6.95122
       H   -12.95461   -0.63097    1.40722
       O   -13.89429   -0.77328    1.66202
      H1   -14.10401   -0.09517    2.35189
       H   -15.30078    3.38427    1.90411
       O   -15.52675    3.09462    1.03036
      H1   -16.31677    3.67498    0.82162
       H   -13.51322    3.55683   10.17884
       O   -13.97123    3.35175   11.02865
      H1   -14.47667    4.16910   11.15050
       H   -14.29545    4.20996    7.33768
       O   -15.03685    3.85642    7.85978
      H1   -15.44195    4.69265    8.19733
       H   -10.90944    1.19894    8.53698
       O    -9.93685    1.34134    8.59295
      H1    -9.81142    1.07901    9.53171
       H    -7.74373    7.38975    7.33405
       O    -8.07822    7.85959    8.09759
      H1    -8.32515    7.12586    8.68939
       H   -14.22573   11.40507    7.59453
       O   -14.70570   10.62468    7.93516
      H1   -14.53056    9.88695    7.36692
       H   -11.15574    2.07568    2.17974
       O   -11.13492    2.60876    2.99177
      H1   -10.15872    2.63088    3.20395
       H   -15.99408    6.35134    0.65914
       O   -15.65247    6.43981    1.58420
      H1   -14.74123    6.24000    1.40191
       H   -18.11055    2.27563    3.91167
       O   -17.24211    1.80361    3.85598
      H1   -17.35588    0.99395    4.38731
       H   -14.84436    6.19480   12.75797
       O   -15.33471    5.33815   12.82717
      H1   -15.09844    5.05108   13.73594
       H   -16.83181    6.40861    7.77137
       O   -16.27865    6.18573    8.55297
      H1   -15.41425    6.52906    8.21867
       H   -14.31933   10.44004    5.06283
       O   -13.36047   10.53395    5.21611
      H1   -13.06359   10.65079    4.32260
       H   -16.71547    5.08667    5.17718
       O   -16.60452    5.92802    4.77618
      H1   -16.64195    5.69894    3.83531
       H   -14.90834    0.11176    4.36290
       O   -14.66842    0.86909    3.76831
      H1   -15.46455    1.38154    3.65649
       H   -15.71193    8.13415    2.05392
       O   -15.67537    9.04224    2.34658
      H1   -16.50253    9.48658    2.02538
       H   -10.00973    5.46664    5.14290
       O   -10.20814    5.67423    6.09758
      H1   -10.46054    6.64776    6.13310
       H   -15.38723    1.93758    8.15708
       O   -15.72119    1.07951    7.77172
      H1   -15.03667    0.87581    7.11771
       H   -18.59479   -1.64212   10.88432
       O   -18.33485   -0.92265   10.27354
      H1   -17.36144   -0.85860   10.32222
       H   -18.46486    1.37677    7.50723
       O   -18.96016    0.87544    6.81003
      H1   -19.82891    1.15539    7.07228
       H   -15.46524   -1.65338   10.18430
       O   -15.54926   -0.64380   10.08077
      H1   -15.80401   -0.59063    9.14019
       H   -11.83045    8.28645    2.14680
       O   -11.47045    7.53392    2.63626
      H1   -12.02836    7.56756    3.44025
       H   -12.40290    4.74918    8.45224
       O   -12.16580    3.83459    8.64327
      H1   -11.84854    3.55073    7.76906
       H   -12.82479    0.98243   11.86592
       O   -12.11116    1.39817   12.37777
      H1   -12.60912    2.21022   12.60672
       H   -13.00957    8.52816    5.30488
       O   -13.17572    7.65763    5.06047
      H1   -14.06812    7.49032    5.30441
       H   -10.38893    8.92098    6.17868
       O   -10.50784    8.26677    6.88831
      H1    -9.63165    8.10947    7.29132
       H   -17.69496    6.87643   11.77126
       O   -18.34261    6.51070   12.38609
      H1   -18.26430    5.54192   12.26723
       H   -15.34906   -3.21980    7.26863
       O   -15.36116   -2.24329    7.46233
      H1   -15.67008   -1.88730    6.62970
       H   -12.68871    6.24488    1.71520
       O   -13.26734    5.52793    1.36198
      H1   -12.60188    5.02516    0.88395
       H    -9.48412   -0.11621    7.60625
       O    -9.09211   -0.92096    7.18900
      H1    -8.70698   -0.55804    6.40113
       H   -13.44306    9.88321   10.65069
       O   -14.01714   10.70590   10.61217
      H1   -13.98654   10.65157    9.66969
       H   -16.34986    3.52413    6.54744
       O   -17.13050    3.43747    6.01905
      H1   -16.85667    2.84125    5.34682
       H   -17.39232   -0.96172    5.39536
       O   -16.61454   -0.47761    5.53362
      H1   -16.85190    0.18233    6.25701

