180
frame 6 | Written by MDAnalysis XYZWriter (release 2.4.3)
       H    15.08288    7.82016   -8.45757
       O    15.86279    7.47146   -7.96875
      H1    16.23829    6.84643   -8.65772
       H    18.56294   -6.68494  -16.27960
       O    17.69001   -6.26925  -16.09284
      H1    17.77578   -5.36258  -16.45618
       H    19.26405    4.47016  -18.10152
       O    19.23499    3.50160  -18.06811
      H1    18.84259    3.26543  -17.22462
       H    13.30852    2.08617   -7.90324
       O    12.91290    1.50139   -8.56556
      H1    13.64300    0.89805   -8.75425
       H    17.62530   -6.08016  -14.26795
       O    17.46027   -6.17211  -13.31744
      H1    16.88386   -5.45861  -13.08620
       H    18.70176    0.51173  -10.63215
       O    18.14203    1.26234  -10.50753
      H1    18.78425    2.01580  -10.43473
       H    13.58870   -2.00932  -10.32559
       O    13.14620   -1.17031  -10.20465
      H1    13.92866   -0.61788  -10.26130
       H    18.91145   -2.65818  -10.55935
       O    19.08093   -1.72169  -10.58770
      H1    19.99007   -1.79811  -11.08261
       H    15.21857   -5.81572   -6.67177
       O    15.15505   -5.62606   -5.71387
      H1    14.21071   -5.45815   -5.52276
       H    18.71394   -2.92123   -5.43819
       O    18.05022   -3.53329   -5.76665
      H1    17.92814   -4.11322   -4.98045
       H    12.10077    6.92722   -7.67439
       O    12.95120    7.14101   -8.06843
      H1    13.55332    6.51847   -7.64036
       H    12.96749   -4.88912  -12.65128
       O    12.93172   -4.18259  -13.34200
      H1    12.37829   -4.57332  -13.99930
       H    17.35275    7.68956  -15.39555
       O    18.23771    7.38179  -15.25946
      H1    18.55284    8.04242  -14.65289
       H    14.52788    1.10441   -5.78575
       O    14.75117    2.06474   -5.75472
      H1    15.58531    2.13744   -6.19712
       H    16.14775    0.00638  -10.19784
       O    15.47382    0.16822   -9.47353
      H1    15.65767    1.14304   -9.41569
       H    10.84138    1.75735  -10.71510
       O    11.17313    2.49775  -11.27359
      H1    11.84293    2.84596  -10.63702
       H    17.21629    0.47152   -6.47257
       O    17.74157   -0.35850   -6.52682
      H1    17.01075   -0.93589   -6.76387
       H    15.22949    5.38621  -12.47676
       O    14.64749    6.13462  -12.26137
      H1    14.02247    6.08162  -13.01353
       H    16.03786    3.75097  -12.48119
       O    16.79339    4.32513  -12.33620
      H1    17.31592    4.21002  -13.20420
       H    15.80725   -1.79649   -9.36231
       O    16.03189   -2.49436  -10.02790
      H1    16.39610   -3.25270   -9.56842
       H    15.36288   -3.47314  -17.03711
       O    15.41535   -3.61173  -17.95976
      H1    15.27933   -4.54859  -18.03413
       H    19.88884    6.04040   -7.17203
       O    19.03994    6.42137   -6.86748
      H1    19.04046    6.11788   -5.94577
       H    14.63987    4.63639   -6.88951
       O    14.53380    5.51655   -6.49405
      H1    15.30300    5.98562   -6.86599
       H    19.57292   -3.89378  -12.12078
       O    19.00088   -4.51333  -11.65397
      H1    19.01135   -5.29788  -12.14712
       H    14.71291   -3.10109  -14.60244
       O    15.15160   -2.79084  -15.44604
      H1    16.01019   -2.49953  -14.99674
       H    17.25841   -0.97525  -13.42784
       O    17.22920   -1.78011  -13.94559
      H1    16.97979   -2.41673  -13.22041
       H    15.02173   -6.98268   -8.95824
       O    15.10063   -6.17757   -8.46176
      H1    15.77967   -5.78855   -8.99695
       H    18.23413   -5.09753   -9.06490
       O    17.44486   -4.74163   -9.48822
      H1    17.80603   -4.76443  -10.41119
       H    16.82929    3.92930   -2.48406
       O    17.55789    3.41659   -2.08102
      H1    17.99567    3.17764   -2.86338
       H    19.48930    0.87870  -19.73591
       O    19.23892    0.38972  -18.94712
      H1    18.60550   -0.24035  -19.36870
       H    15.45181   -3.42218  -11.91046
       O    15.64260   -3.95243  -12.71339
      H1    14.84445   -4.43185  -12.88700
       H    12.24679    0.69543   -7.25758
       O    12.21101    0.27354   -6.35755
      H1    11.43830   -0.29159   -6.61625
       H    15.16716   -3.62002   -7.07496
       O    15.83089   -2.95926   -7.00580
      H1    16.33156   -3.40241   -6.21217
       H    12.44781    1.32477  -11.72200
       O    13.27528    0.88424  -12.02217
      H1    13.24547    0.05089  -11.56004
       H    15.52739    2.86981  -16.21022
       O    15.69199    2.55642  -15.34411
      H1    15.41923    1.61785  -15.39264
       H    11.44456   -3.45923   -9.91079
       O    11.43008   -4.35816  -10.27260
      H1    11.01904   -4.28366  -11.16847
       H    17.40170    1.62635  -18.43113
       O    16.56118    1.99640  -18.69000
      H1    16.75454    2.93858  -18.73076
       H    13.61199   -2.12481   -5.10652
       O    13.11730   -2.80530   -4.60341
      H1    12.29743   -2.91318   -5.14552
       H    18.68825   -2.90176  -16.35687
       O    18.36596   -3.57255  -16.99643
      H1    17.55681   -3.25111  -17.42772
       H    12.93517   -5.05875   -6.85411
       O    13.28848   -4.46195   -7.53520
      H1    13.77181   -5.07938   -8.11540
       H    18.13872    3.90663  -11.10707
       O    18.91846    3.92946  -10.46131
      H1    18.43421    4.00400   -9.64399
       H    19.73508    7.88570  -12.67437
       O    19.43564    8.78343  -12.80673
      H1    18.50772    8.66709  -12.55802
       H    19.20633   -4.85194   -7.23674
       O    19.37290   -5.63545   -7.84304
      H1    18.79471   -6.37202   -7.54137
       H    12.71949    1.07794  -14.00127
       O    12.10783    1.24736  -14.72044
      H1    11.48981    1.78562  -14.20759
       H    14.93093   -1.49377   -6.31274
       O    14.44490   -0.85574   -5.78399
      H1    13.57993   -0.70389   -6.18230
       H    11.88836   -2.54466  -15.05454
       O    11.86750   -1.69248  -15.54437
      H1    12.00105   -0.93394  -14.95674
       H    14.76357   -0.79505  -16.12796
       O    14.63541    0.15737  -16.25343
      H1    13.71757    0.22628  -16.47580
       H    16.18291    8.26442  -11.56938
       O    16.75599    8.18416  -12.32868
      H1    16.51358    7.33455  -12.68313
       H    17.99145    2.18029   -7.52256
       O    17.45034    2.32733   -6.72510
      H1    18.09383    2.46576   -5.99632
       H    19.59071    3.55106   -4.86534
       O    19.03042    2.78234   -4.64689
      H1    19.68276    2.09515   -4.96091
       H    18.95587    1.70980  -15.81982
       O    18.58183    2.58188  -15.60859
      H1    17.63577    2.30069  -15.41106
       H    17.39731   -0.28198   -2.87072
       O    18.34728   -0.40521   -3.16365
      H1    18.26015   -0.31216   -4.10385
       H    12.86926    5.05993  -10.00564
       O    13.02207    4.11918  -10.06451
      H1    13.53032    3.93278  -10.85865
       H    18.89373    4.16013  -14.93302
       O    18.82138    4.80844  -14.28230
      H1    18.75146    5.64773  -14.75833
       H    17.52395    9.10699   -7.87148
       O    18.54603    9.06033   -7.77293
      H1    18.62539    8.16081   -7.38988
       H    14.50888    3.36368   -9.23927
       O    15.41326    2.94659   -9.14239
      H1    15.97978    3.62734   -9.52026
       H    17.76809    5.57813   -8.05257
       O    17.23358    4.94813   -8.49521
      H1    17.11215    4.38420   -7.75832
       H    17.93009    0.91634  -12.26540
       O    17.65776    0.74099  -13.19576
      H1    18.49096    0.61847  -13.64471
       H    14.44447    3.31375  -13.88501
       O    14.16346    3.29498  -12.98762
      H1    14.10677    2.33529  -12.91431
       H    18.65182   -7.26997  -12.33674
       O    19.10312   -7.52124  -11.52610
      H1    19.77480   -8.02447  -11.92629

