180
frame 12 | Written by MDAnalysis XYZWriter (release 2.4.3)
       H    14.64660  -17.67776  -18.80959
       O    14.87068  -18.28737  -18.02935
      H1    15.20156  -19.08407  -18.47286
       H    11.43045  -13.46780   -3.95851
       O    10.57842  -13.19553   -4.31972
      H1    10.81777  -12.36090   -4.79028
       H    12.45205  -11.83152  -14.66754
       O    12.59742  -10.89940  -14.46597
      H1    12.28659  -10.79968  -13.54464
       H    12.90003  -14.77339   -2.63312
       O    12.66795  -15.23347   -1.78619
      H1    12.35414  -16.07073   -2.18024
       H     5.39339  -17.55184  -10.21514
       O     5.80194  -17.71466  -11.04886
      H1     6.73733  -17.62311  -10.84735
       H    12.46653  -15.08257  -10.48196
       O    12.03495  -15.10284  -11.36325
      H1    12.45557  -15.87979  -11.74067
       H    12.94761  -16.40951   -8.26487
       O    13.21298  -15.55477   -8.64776
      H1    13.69915  -15.23639   -7.85025
       H    11.26391  -17.68862   -3.54779
       O    11.13724  -18.09192   -2.67792
      H1    11.86564  -18.69138   -2.61540
       H     3.77586  -17.96156   -8.15905
       O     4.06611  -17.04453   -8.32920
      H1     4.90240  -17.00659   -7.79942
       H    18.20327  -16.47720   -8.64266
       O    17.31079  -16.16060   -8.58120
      H1    16.79563  -16.97870   -8.36197
       H     4.93981  -16.54647  -14.28880
       O     4.59308  -15.65559  -14.39796
      H1     5.03437  -15.19047  -13.65549
       H    11.27305  -17.24753   -7.08002
       O    11.02702  -16.31785   -7.08938
      H1    10.86337  -16.21788   -6.12464
       H    13.30772  -18.43781  -16.51437
       O    13.07400  -19.11794  -15.89558
      H1    13.94164  -19.30517  -15.44333
       H     9.54380  -16.49415   -3.92416
       O    10.12100  -16.16443   -4.65226
      H1    10.21601  -15.22283   -4.43898
       H    13.76700  -12.78827  -15.90612
       O    13.14746  -13.52824  -15.62420
      H1    13.80088  -14.19694  -15.35658
       H     7.26171  -15.42866   -7.44089
       O     6.58841  -16.10968   -7.32610
      H1     7.11162  -16.83987   -6.93962
       H     5.80549  -18.05755  -12.81125
       O     5.67019  -18.03778  -13.77349
      H1     6.57270  -17.74187  -14.05984
       H    10.82459  -11.04750   -9.97682
       O    11.62368  -11.49477  -10.33726
      H1    11.33373  -12.04129  -11.16663
       H    11.95818  -18.02099  -10.05724
       O    12.06235  -19.01221  -10.06445
      H1    11.33448  -19.26770  -10.63200
       H    17.98231  -13.60056   -8.98261
       O    18.54041  -13.29664   -8.25908
      H1    19.13883  -12.70216   -8.72489
       H    10.14514  -16.20493   -8.60705
       O     9.58109  -16.46517   -9.37036
      H1     9.42782  -15.71067   -9.92304
       H    17.90800  -15.79061   -5.58244
       O    17.24477  -15.19242   -5.18074
      H1    17.07558  -15.54787   -4.29518
       H     9.21456  -18.25077  -12.06388
       O     8.45492  -17.61894  -11.97481
      H1     8.87947  -16.73760  -12.19673
       H     4.72673  -13.61809   -8.70104
       O     4.18420  -14.21871   -9.25840
      H1     4.49978  -15.08474   -8.96191
       H    13.86675  -13.61568   -4.63033
       O    13.30096  -13.72017   -3.80180
      H1    13.54443  -12.88065   -3.35571
       H    15.90373  -18.76583  -15.16033
       O    15.45062  -19.48252  -14.67005
      H1    15.59384  -19.26061  -13.72451
       H    15.30325  -16.21726  -15.84254
       O    14.60178  -15.72263  -15.46099
      H1    14.90979  -15.71015  -14.58739
       H     9.29446  -14.04720   -7.60018
       O     8.33166  -13.97261   -7.44882
      H1     8.17229  -13.65002   -6.50221
       H     6.32472  -15.53184   -4.33177
       O     5.46664  -15.49568   -4.83905
      H1     5.76479  -15.55258   -5.73647
       H     8.39369  -17.89993   -9.20429
       O     8.13785  -18.81656   -8.97411
      H1     7.96476  -18.86832   -8.00657
       H    16.16748  -10.04846  -10.32768
       O    16.73372  -10.89572  -10.18402
      H1    15.98217  -11.47723  -10.35886
       H     8.70402  -17.16395  -14.66040
       O     8.02185  -17.70410  -15.09914
      H1     8.28235  -17.64338  -16.03658
       H    15.74316  -18.91328   -7.07068
       O    16.12257  -18.70304   -7.94158
      H1    16.06870  -19.60406   -8.32780
       H    15.89123  -15.99111  -11.98079
       O    16.17008  -15.92557  -12.88376
      H1    16.89785  -15.28710  -12.80250
       H     8.54080  -15.02122  -13.80007
       O     8.95153  -14.98839  -12.94898
      H1     8.30473  -14.55393  -12.39253
       H     3.14746  -18.21447  -12.55920
       O     2.89337  -19.12275  -12.76242
      H1     3.53946  -19.20966  -13.47874
       H    15.01104  -11.93437  -12.06307
       O    14.89247  -12.48967  -11.22059
      H1    15.22491  -13.35145  -11.39944
       H     7.36771  -14.25579  -16.28457
       O     6.68827  -14.90927  -16.10119
      H1     5.93272  -14.44985  -15.69145
       H    17.40789  -17.22777  -16.65003
       O    16.63058  -17.74257  -16.33559
      H1    16.11732  -17.85332  -17.21134
       H     7.42108  -19.44418   -5.84920
       O     6.90700  -18.82789   -6.39957
      H1     6.03145  -19.03619   -5.95671
       H    12.10637  -18.90836  -14.50735
       O    11.24882  -18.69069  -14.08556
      H1    11.60154  -18.25557  -13.31454
       H     6.01025  -15.89392  -11.73197
       O     5.60452  -15.05225  -11.80560
      H1     4.79878  -15.20199  -11.30367
       H    14.76634  -15.31353   -6.02741
       O    14.50061  -14.38267   -6.33199
      H1    15.33084  -13.81878   -6.34143
       H    11.76363  -13.15932   -9.01481
       O    11.27233  -13.59223   -8.32980
      H1    11.82513  -14.38506   -8.23780
       H    11.60758  -19.74423   -6.99872
       O    12.03400  -18.89384   -7.30776
      H1    11.94639  -18.96181   -8.27070
       H     7.15788  -10.80039  -10.52535
       O     7.57684  -11.15760  -11.33337
      H1     7.76772  -12.10035  -11.17417
       H     7.97944  -17.49048  -18.25326
       O     8.36465  -16.93954  -17.58182
      H1     7.68499  -16.47120  -17.06662
       H    11.39874  -16.63620  -17.54030
       O    12.28825  -16.88087  -17.79834
      H1    12.03811  -17.35584  -18.60397
       H    14.74949  -19.77606  -11.60844
       O    15.38676  -19.11412  -11.81103
      H1    15.73011  -18.88012  -10.93305
       H    11.25872  -15.73139  -15.05801
       O    10.49296  -16.26791  -15.36169
      H1    10.88990  -17.11632  -15.09596
       H     9.94515  -13.29781  -12.98483
       O    10.71744  -12.93861  -12.52248
      H1    10.98357  -13.79809  -12.04329
       H    14.48982  -15.95165   -9.89133
       O    15.23384  -16.32709  -10.38840
      H1    15.97686  -16.29908   -9.74526
       H    18.69232  -13.96090  -11.39964
       O    18.11854  -14.27320  -12.04777
      H1    17.94077  -13.49390  -12.64692
       H     2.27166  -17.48798  -10.76831
       O     2.74297  -16.83480  -11.31645
      H1     2.01294  -16.43473  -11.83126
       H    12.58263  -13.83076  -17.18438
       O    12.40558  -14.12248  -18.09476
      H1    12.49555  -15.12936  -18.09757
       H    15.69562  -17.59128   -4.49681
       O    15.01467  -17.43266   -5.21732
      H1    14.59588  -18.27859   -5.38020
       H     7.73955  -13.88698   -9.43372
       O     7.75700  -13.83451  -10.39789
      H1     6.81494  -14.04040  -10.59327
       H     4.42346  -17.56005   -5.26993
       O     4.18613  -18.44431   -5.55764
      H1     4.41364  -18.92700   -4.78798
       H    14.03866  -17.56338  -12.19540
       O    13.02290  -17.52774  -12.11810
      H1    12.84386  -18.33211  -11.53359
       H     5.47192  -16.58839  -16.59501
       O     4.78328  -16.78498  -17.33318
      H1     5.37711  -17.44237  -17.85292

