180
frame 11 | Written by MDAnalysis XYZWriter (release 2.4.3)
       H     4.98604    7.70246  -14.90482
       O     5.06204    7.32929  -13.99388
      H1     4.85613    8.12210  -13.48626
       H     1.50646   14.88769  -12.50241
       O     2.06082   15.60002  -12.10969
      H1     1.68184   16.35347  -12.68399
       H     2.88500    3.29520   -9.68674
       O     2.53746    4.18326   -9.94654
      H1     1.61447    4.05062   -9.80780
       H     2.52131   11.13069  -12.30668
       O     3.33680   10.87365  -12.76447
      H1     3.94638   11.34367  -12.17429
       H     3.37645   12.85571  -17.17847
       O     2.93854   13.09873  -18.00136
      H1     3.72477   13.51912  -18.41268
       H    -1.94855   11.27412  -10.30869
       O    -2.04483   11.01700   -9.38582
      H1    -1.24862   11.07264   -8.92801
       H    -4.51847   13.61324  -15.32711
       O    -3.57436   13.45981  -15.29994
      H1    -3.67321   12.56433  -14.85381
       H    -4.17689    7.08793  -19.53903
       O    -4.25755    6.15238  -19.43811
      H1    -3.83303    6.07394  -18.54162
       H    -3.47933    3.51376  -12.65341
       O    -3.48841    3.54414  -13.64087
      H1    -4.39025    3.81146  -13.91457
       H    -3.22072    6.26890  -13.57561
       O    -2.92585    6.56428  -12.69544
      H1    -3.52735    7.27698  -12.51793
       H    -0.35239    8.07821   -8.40678
       O    -0.84633    7.42960   -7.86396
      H1    -0.91248    7.86502   -6.99672
       H    -1.34326    4.32596  -10.11411
       O    -0.39950    4.30982  -10.39098
      H1    -0.53282    4.61404  -11.27997
       H    -5.28364    5.83408  -14.63799
       O    -4.43704    6.19509  -15.03105
      H1    -4.74080    7.10652  -15.09066
       H     1.58923    9.11140  -10.20886
       O     0.69079    9.36276   -9.86269
      H1     0.16205    8.98368  -10.58534
       H    -6.75919    8.86312  -11.02805
       O    -7.42101    9.31607  -10.40491
      H1    -6.89845    9.48644   -9.57283
       H    -1.89077    1.52552  -10.80669
       O    -1.32523    1.73978  -10.01440
      H1    -0.88416    2.55683  -10.30217
       H     0.94305   12.44914  -17.88112
       O     0.28442   11.80384  -17.49910
      H1    -0.62341   12.03308  -17.83805
       H    -7.17571   11.06751  -11.31513
       O    -7.17277   11.78473  -11.94705
      H1    -6.45776   12.37920  -11.61036
       H    -4.95288    8.75424  -16.68455
       O    -5.16299    8.80414  -15.73074
      H1    -5.58728    9.65667  -15.59018
       H    -0.04036    3.32424  -18.52839
       O     0.34724    3.55791  -17.68595
      H1    -0.38690    3.38632  -17.03938
       H     0.98090   13.79792  -15.29069
       O     0.92929   12.93268  -14.90385
      H1     0.63236   12.28432  -15.62574
       H     1.09677   13.81336   -8.79447
       O     0.24775   13.43296   -8.64575
      H1    -0.12772   14.11320   -8.07077
       H    -4.93894   12.31996  -17.58584
       O    -5.83993   12.68701  -17.56349
      H1    -6.34057   11.99479  -18.01092
       H     0.76865   10.99474  -10.78436
       O     1.02641   11.58006  -11.52253
      H1     0.48169   12.34708  -11.38686
       H     4.01159    5.53341  -16.19029
       O     3.15174    5.78508  -15.79363
      H1     3.55165    6.23441  -15.02782
       H     0.63950   10.63813   -8.15897
       O     0.09056   11.12103   -7.50651
      H1     0.08587   12.00779   -7.97310
       H     1.77206    7.96037  -17.65888
       O     1.41051    7.08125  -17.57034
      H1     1.97854    6.60451  -16.91161
       H     3.82318   10.42945  -15.71679
       O     4.26983    9.57582  -15.68747
      H1     4.98711    9.79812  -16.30046
       H     4.43048    9.61902  -10.25644
       O     5.07955   10.29331  -10.20722
      H1     4.60455   11.04453   -9.79557
       H     1.38938    3.03853  -16.01777
       O     1.84954    3.38796  -15.23384
      H1     1.96152    4.32620  -15.43083
       H    -6.28641    7.76391  -13.26826
       O    -5.87562    7.95396  -12.37109
      H1    -5.19984    8.60682  -12.49014
       H    -5.49823   13.91776   -9.11225
       O    -4.61783   13.60657   -9.23448
      H1    -4.41367   13.36046   -8.25950
       H    -0.11435   14.09642  -10.37985
       O    -0.19045   13.87609  -11.31525
      H1    -1.12080   13.94550  -11.45727
       H     3.58255    7.54388  -10.04823
       O     3.12030    8.36482  -10.32727
      H1     3.28902    8.28608  -11.30970
       H    -0.38945   10.41331  -13.73249
       O    -1.14976    9.86513  -13.52918
      H1    -0.79120    9.16937  -12.91409
       H    -3.83757   14.07086  -12.05436
       O    -3.04869   13.72033  -11.65408
      H1    -3.28293   13.52581  -10.71817
       H    -3.48584    9.71221   -9.16719
       O    -4.32043    9.21935   -9.08193
      H1    -4.88538    9.88927   -8.65034
       H    -7.73027    5.26933  -11.83161
       O    -6.84867    5.37721  -11.39542
      H1    -6.50730    6.18958  -11.82606
       H    -6.82911   10.90061  -13.61884
       O    -6.74277   10.74412  -14.58680
      H1    -6.56605   11.65421  -14.79312
       H    -2.66093   10.48065  -14.51524
       O    -3.61818   10.76407  -14.59334
      H1    -3.82028    9.98611  -15.15347
       H     1.86689    5.80910   -5.78845
       O     1.68360    5.59171   -6.71962
      H1     0.74273    5.88546   -6.81270
       H     0.35911    6.97541  -15.74333
       O    -0.07677    6.46073  -15.03031
      H1    -0.08324    7.07379  -14.23735
       H     2.67762   12.48410  -14.98011
       O     3.47261   12.21648  -15.47637
      H1     4.10882   12.87422  -15.16900
       H    -3.63711    9.96334  -12.75017
       O    -3.86351    9.41779  -11.99693
      H1    -4.16702   10.03915  -11.32370
       H    -2.98861    7.12373   -7.81908
       O    -3.78291    6.96530   -7.29878
      H1    -4.34578    7.63111   -7.75301
       H     1.69703    9.85099  -19.58446
       O     1.11157    9.61022  -18.77844
      H1     0.82299   10.44915  -18.42170
       H    -3.70940    4.96947  -11.35688
       O    -3.35913    4.21562  -10.91054
      H1    -4.05021    3.62003  -10.76781
       H    -0.19034    6.85977  -12.00027
       O    -0.50502    7.71407  -12.18290
      H1    -1.43037    7.50934  -12.51253
       H     5.27219   15.01984  -13.97504
       O     4.76784   14.19678  -13.86036
      H1     3.84104   14.54339  -13.58668
       H    -4.88937    9.20796  -19.32841
       O    -4.25982    8.88181  -18.66574
      H1    -3.41978    9.28127  -18.94582
       H    -1.64921   13.72039  -17.81635
       O    -2.48456   13.31745  -17.66885
      H1    -2.61091   13.57124  -16.72713
       H     0.27328    5.31340  -13.85892
       O     0.15296    4.76983  -13.08661
      H1    -0.14461    3.89923  -13.40384
       H    -1.93729    3.82311  -15.67390
       O    -1.59552    2.89748  -15.84180
      H1    -2.37789    2.51775  -16.20687
       H    -2.61741   14.94293  -14.61599
       O    -1.89856   15.56865  -14.52434
      H1    -1.28780   14.97580  -14.06078
       H    -1.54864    2.44499  -13.66032
       O    -1.14582    2.05491  -12.90685
      H1    -0.36942    1.66614  -13.33688
       H    -3.21050    6.02066  -16.33792
       O    -2.65293    5.78245  -17.09134
      H1    -1.85694    6.34634  -16.89006
       H     1.84173    7.46652   -6.98379
       O     2.20383    8.36669   -6.87298
      H1     1.49820    8.83735   -6.38703
       H     5.35314   10.42844  -13.65796
       O     6.25734   10.69129  -13.36346
      H1     6.77646   10.74569  -14.18862
       H    -0.18972    9.85433   -6.26882
       O    -0.52839    9.30119   -5.53354
      H1     0.03219    9.58648   -4.77610
       H     3.18268    6.44418   -8.22646
       O     3.86804    6.26339   -8.89161
      H1     3.61615    5.36382   -9.25558

