180
frame 40 | Written by MDAnalysis XYZWriter (release 2.4.3)
       H     2.93228   -1.27886    4.77527
       O     3.15534   -0.64801    4.06458
      H1     2.81403    0.13764    4.51049
       H     5.09478   -0.96036    0.54499
       O     5.96107   -1.29985    0.87367
      H1     6.36848   -0.40855    1.13150
       H    -0.77775   -0.40214    3.26610
       O    -1.34496   -0.19825    4.01459
      H1    -1.27150    0.78887    3.96679
       H     2.80058   -0.65390    1.09610
       O     3.42679   -0.22635    0.59929
      H1     3.56657    0.60610    1.01736
       H     3.66982   -2.24294    7.34764
       O     3.40939   -2.09299    6.40438
      H1     4.00312   -1.33292    6.21990
       H     0.34435    3.27931    1.15471
       O     0.86924    3.49246    1.95332
      H1     0.60244    4.43171    1.97608
       H     5.18229    0.22919    6.88727
       O     5.51006   -0.05714    6.01297
      H1     4.98290    0.41739    5.41299
       H     2.24766   -1.38965   14.08407
       O     1.53699   -0.80970   13.80009
      H1     2.07280   -0.17618   13.30450
       H     1.29858    5.64384    9.98929
       O     0.78141    4.85863   10.21910
      H1    -0.06002    4.96092    9.71672
       H    -1.79118    1.56386   11.25190
       O    -1.98657    1.64366   10.30443
      H1    -1.09544    1.43887    9.98399
       H     2.08535    3.78932    9.23891
       O     2.97286    3.44166    8.79358
      H1     2.79448    3.83090    7.91732
       H     3.33166   -2.94177    9.65800
       O     3.96256   -2.41151    9.15959
      H1     4.84744   -2.80451    9.27301
       H     6.36561    4.09082    5.41754
       O     5.92938    3.43940    6.01334
      H1     6.67065    2.92118    6.24865
       H     0.68389    1.07656    8.45464
       O     0.41336    1.05754    9.36604
      H1     0.59296    0.06728    9.57339
       H     5.72342   -1.83063    2.55063
       O     5.81922   -2.04339    3.49469
      H1     4.97036   -1.75462    3.80911
       H    -2.36512   -5.32233    6.40373
       O    -2.27138   -6.27365    6.62866
      H1    -2.77155   -6.25962    7.49949
       H     7.41102   -2.95322    6.42235
       O     6.95344   -2.27486    6.90541
      H1     6.29778   -1.79275    6.34865
       H     6.31233   -5.74811    5.70658
       O     5.84150   -5.11153    5.13252
      H1     4.86183   -5.31266    5.17125
       H    -0.74611    3.02629   12.82014
       O    -0.42430    2.12620   12.63553
      H1    -0.67570    1.57206   13.39432
       H    -3.15919   -6.04165    3.55913
       O    -2.73615   -5.41128    2.94049
      H1    -2.71229   -4.61138    3.58537
       H     7.43068   -2.64231    3.87952
       O     8.37577   -2.80757    4.01936
      H1     8.68748   -2.41325    3.19899
       H     0.94890   -6.14789    7.28098
       O     0.70079   -5.21167    7.24501
      H1    -0.20158   -5.35614    7.14897
       H    -4.45557   -0.74350    2.37325
       O    -3.48424   -0.79427    2.28434
      H1    -3.14654   -0.28914    3.03688
       H     6.74057   -2.28092   10.06233
       O     6.58948   -3.10585    9.53229
      H1     6.82094   -2.93810    8.60541
       H     7.67589    0.46398    6.35555
       O     8.06017    1.30529    6.25567
      H1     9.03380    1.16395    6.22516
       H     1.56421   -5.22466   10.02555
       O     1.85583   -4.41002    9.50875
      H1     1.29811   -4.57922    8.70549
       H     9.11936    2.08096    3.78064
       O     8.52194    2.77017    4.14407
      H1     8.37364    2.47223    5.04035
       H     3.41723    4.42023    2.60999
       O     3.64066    5.17889    3.23587
      H1     4.50675    4.90266    3.53414
       H     5.82089    1.72011   -0.43940
       O     5.78949    1.84982    0.52877
      H1     5.13986    2.54230    0.71714
       H    -0.67177    3.61642    7.03158
       O    -0.60658    3.65155    6.02984
      H1     0.34672    3.89994    5.78729
       H     3.84739    2.56931    2.37244
       O     3.50535    3.06525    1.60203
      H1     2.55615    2.97257    1.85390
       H    -2.18319   -2.96502    9.46758
       O    -2.39423   -2.21305    8.91370
      H1    -3.05338   -2.63194    8.30884
       H     1.65591   -0.89857    3.02592
       O     0.83645   -0.97037    2.52168
      H1     0.70078   -1.85176    2.16954
       H    -0.79241   -1.50109    5.42413
       O    -0.76033   -1.88634    6.29025
      H1    -1.46522   -1.50940    6.76967
       H     3.79052   -2.40591   11.05709
       O     3.74743   -3.13063   11.74403
      H1     3.57559   -2.64481   12.60081
       H    -3.80295    1.52518    8.67415
       O    -4.06277    2.09069    7.96839
      H1    -4.16017    2.94020    8.43162
       H    -0.34003    2.58083    3.17461
       O    -1.22503    2.43172    3.63695
      H1    -1.06661    2.83562    4.52166
       H     5.93812   -0.28858   11.44566
       O     6.78890   -0.78898   11.51063
      H1     6.55441   -1.34658   12.27580
       H     0.62364    0.12466    6.50805
       O     1.50830    0.52405    6.42821
      H1     2.07644   -0.24782    6.64132
       H     6.59428    1.59653   13.72745
       O     5.70126    1.25521   13.66531
      H1     5.46320    1.14366   12.68107
       H     3.49210    0.37222    8.94418
       O     3.98617    0.91267    8.32442
      H1     3.47371    1.76072    8.44427
       H     4.64813    4.07083    9.24573
       O     5.41095    4.28174    9.79277
      H1     5.76847    4.91195    9.17282
       H     2.79106   -3.68115    5.36147
       O     2.47765   -4.54868    5.17516
      H1     1.73033   -4.74070    5.84888
       H     3.37873   -7.48825    5.73308
       O     2.98853   -7.28605    6.61487
      H1     2.34136   -8.06525    6.72020
       H    -2.85033   -4.32388   11.63130
       O    -2.26824   -4.19635   10.82869
      H1    -2.31221   -5.10783   10.53426
       H    -2.62820    4.48319    8.77711
       O    -1.74667    4.05439    8.77407
      H1    -1.88000    3.29671    9.32007
       H    -1.84820   -3.14434    5.86224
       O    -2.42780   -3.77434    5.48575
      H1    -3.30989   -3.36544    5.60022
       H    -1.41175    6.99111    6.45428
       O    -0.93257    6.68374    5.64730
      H1    -1.00612    5.70282    5.85079
       H     2.11458   -7.27937    3.80972
       O     2.23349   -6.51427    3.23590
      H1     2.28351   -5.82134    3.89952
       H     3.21840   -5.55876    9.17844
       O     3.89176   -6.25216    8.97204
      H1     3.64040   -6.51221    8.01103
       H     1.64479    2.13138   11.80377
       O     2.43291    1.91495   12.35207
      H1     2.56849    2.74491   12.82786
       H     5.31226    2.51437    4.78288
       O     4.83853    2.08184    4.00066
      H1     5.66552    1.70782    3.56372
       H     5.00106    1.96687   10.67804
       O     4.71552    1.33843   11.31796
      H1     3.99563    1.90016   11.66242
       H     2.34331    4.63803    4.61635
       O     2.00537    4.61416    5.52350
      H1     2.39958    5.39731    5.93028
       H     5.42056    6.37336    7.35559
       O     4.57442    6.22489    6.89010
      H1     4.72207    5.36850    6.53121
       H     6.85964   -0.59224    3.44724
       O     6.94532    0.27659    3.03356
      H1     7.44319    0.76774    3.68658
       H    -5.35157   -2.89864    6.24083
       O    -4.57313   -2.39466    5.94334
      H1    -4.87391   -1.47304    5.79449
       H     1.59005   -4.43200    1.47062
       O     2.04286   -3.70228    1.95702
      H1     2.97729   -3.98542    1.75978
       H     0.17898   -1.51929   10.86662
       O     0.84717   -1.43784   10.21086
      H1     0.87923   -2.36011    9.89987
       H    -2.61820   -0.44173   11.57859
       O    -2.75032   -1.38228   11.71897
      H1    -2.65201   -1.74629   10.85394

