180
frame 7 | Written by MDAnalysis XYZWriter (release 2.4.3)
       H    13.56145  -18.54668   -3.95981
       O    13.16136  -18.14389   -4.73876
      H1    13.17710  -18.83141   -5.42765
       H    15.47464  -16.17233    3.91666
       O    15.78319  -16.95779    3.45928
      H1    14.97956  -17.27727    3.10081
       H     8.06135  -15.86929    4.73687
       O     8.55805  -15.26875    5.32623
      H1     9.42553  -14.98086    4.87499
       H    11.67736  -13.84029   -4.18580
       O    10.73325  -13.75841   -4.34225
      H1    10.71619  -12.90807   -4.87813
       H    16.13183  -16.94848   -2.74884
       O    16.49283  -16.12411   -2.94521
      H1    17.32664  -16.30304   -2.51360
       H    13.08219  -14.53122   -1.40753
       O    12.79241  -15.34110   -1.01421
      H1    12.12333  -15.67718   -1.65868
       H    16.66322  -14.02378    7.65952
       O    16.95570  -14.93722    7.44671
      H1    17.80139  -14.75725    7.01703
       H    13.00949  -11.37119   -6.93970
       O    12.85732  -12.31664   -6.99292
      H1    13.22223  -12.73237   -6.19553
       H    10.79712  -13.53969    1.01902
       O    11.28498  -13.19657    1.76015
      H1    11.10649  -12.25622    1.62745
       H    18.47866  -10.85778   -2.58474
       O    17.80257  -11.19195   -3.19977
      H1    17.39502  -10.33332   -3.52298
       H    10.53115  -16.35998   -3.49470
       O    11.31341  -16.60599   -2.88038
      H1    11.89841  -17.10768   -3.44069
       H    13.00321  -10.70677   -1.56301
       O    12.22983  -10.87711   -2.16299
      H1    11.49151  -10.89113   -1.46727
       H    17.42436  -16.48491   -9.29449
       O    17.87543  -16.31744   -8.42662
      H1    17.55412  -17.04049   -7.89584
       H    17.28560  -19.12553    0.78601
       O    16.55067  -19.56874    1.27565
      H1    16.47143  -19.12839    2.17500
       H    14.24569   -7.26111   -4.36194
       O    13.87694   -8.08096   -4.09692
      H1    13.80916   -7.89548   -3.13755
       H    10.94026   -8.04103   -1.34170
       O    11.19625   -8.04465   -2.31183
      H1    11.54236   -8.94242   -2.42936
       H     8.53511  -15.80497   -4.10362
       O     9.35964  -16.09223   -4.46619
      H1     9.67191  -15.23285   -4.84234
       H    18.43030  -12.88436   -5.07682
       O    19.37423  -12.74288   -5.34850
      H1    19.57861  -13.58433   -5.74854
       H    14.69870  -17.26246    6.74960
       O    15.32783  -17.95857    6.39549
      H1    15.15303  -18.65846    7.02180
       H    10.33713  -17.43141    0.25950
       O    10.77496  -16.94351    1.01435
      H1    10.46424  -15.99477    0.87790
       H    19.73156   -9.04403    1.50549
       O    19.08518   -8.78540    0.73534
      H1    18.95065   -7.82152    0.89652
       H    16.54547  -15.00100    1.33899
       O    17.09266  -14.99092    2.19304
      H1    16.83097  -15.88250    2.51563
       H    17.15169  -14.82061   -7.68631
       O    17.02936  -13.84697   -7.79919
      H1    17.64053  -13.56715   -8.53392
       H     8.88037  -16.89360    1.51931
       O     8.07696  -17.30564    1.86786
      H1     7.49153  -17.07810    1.14475
       H    17.30937  -14.39451   -4.03014
       O    16.82674  -13.55473   -4.17218
      H1    16.99129  -13.01299   -3.38335
       H    12.82526  -14.77945    1.03891
       O    13.35719  -15.18451    1.68808
      H1    13.10456  -16.04276    1.42170
       H     7.94306  -17.04847   -1.26947
       O     7.16518  -16.47395   -0.93677
      H1     6.42490  -16.95451   -1.34624
       H    15.58539   -8.04440   -1.60807
       O    14.62963   -7.89926   -1.48798
      H1    14.44574   -8.67911   -1.00940
       H    13.89290  -13.66069   -4.38819
       O    13.22207  -13.64807   -3.64834
      H1    13.25521  -12.83453   -3.12276
       H    10.34185   -9.75775    2.11009
       O    11.13667  -10.09051    1.68966
      H1    10.68028  -10.50278    0.95642
       H    18.74457  -17.79134   -0.73393
       O    18.61195  -18.47507   -0.02539
      H1    19.37362  -18.34155    0.61907
       H    16.40094  -12.22978   -7.10834
       O    16.32576  -11.31917   -6.78669
      H1    15.74024  -10.87091   -7.44526
       H    15.24102   -7.78372    2.98032
       O    15.43476   -6.86478    3.14324
      H1    15.84917   -6.57111    2.28949
       H    13.62082  -14.22120    4.65717
       O    14.34245  -14.73259    4.21836
      H1    13.99435  -14.81733    3.27566
       H    20.22310  -10.13775   -1.60248
       O    19.61497  -10.78812   -1.30206
      H1    18.96288  -10.16673   -0.88739
       H    13.40082  -19.23214    4.55772
       O    13.53062  -18.27052    4.32465
      H1    14.31640  -18.10066    4.92142
       H    17.83309  -19.61045    5.54090
       O    17.96916  -18.63194    5.65516
      H1    17.03581  -18.42927    5.86938
       H    14.14478  -14.76956    7.04432
       O    13.88327  -15.63098    7.34816
      H1    13.34402  -15.26341    8.11188
       H    16.85020  -17.75833   -6.24784
       O    17.47204  -18.40226   -6.74158
      H1    16.85918  -19.11128   -6.97384
       H    15.36155  -19.28349   -2.67876
       O    14.78534  -18.49681   -2.71371
      H1    14.75402  -18.23627   -1.74750
       H    15.97753  -15.10267   -1.21986
       O    15.57333  -15.38051   -0.40294
      H1    14.60015  -15.49659   -0.73352
       H     9.52863  -13.30744   -2.85409
       O     9.12572  -13.01838   -2.04539
      H1     8.18271  -13.17702   -2.22717
       H    11.18322  -15.45149    3.86825
       O    11.25509  -14.59376    4.25734
      H1    11.61667  -14.11661    3.51151
       H    14.70717  -15.28811   -5.63896
       O    14.65019  -14.35423   -5.78444
      H1    15.52427  -14.08480   -5.46161
       H    16.34671   -9.98557   -5.19818
       O    16.63241   -9.18059   -4.76551
      H1    15.79670   -8.83516   -4.34629
       H    10.94888  -17.48868    2.83381
       O    10.83287  -17.49312    3.79795
      H1    11.76256  -17.54373    4.13815
       H     9.47760  -10.21208   -0.95481
       O     9.94013  -10.93110   -0.48491
      H1     9.98713  -11.58233   -1.20001
       H    13.55379  -12.01398    6.02075
       O    13.17916  -12.79866    6.44017
      H1    12.37897  -12.46950    6.82728
       H    18.61726  -15.24725    1.34245
       O    19.41710  -15.05127    0.79200
      H1    19.98054  -14.69707    1.52075
       H     8.64228  -14.21102    0.64634
       O     9.49934  -14.56018    0.31401
      H1     9.38274  -14.28744   -0.62348
       H    13.63611  -13.77146   -8.28608
       O    14.25170  -14.28266   -8.85144
      H1    14.89564  -14.37672   -8.11801
       H    15.45262  -18.34020    0.54650
       O    14.80013  -17.81103    0.02394
      H1    15.17630  -16.91951    0.00575
       H    13.59273   -9.77657    0.70148
       O    14.09136  -10.00925   -0.07878
      H1    14.91367  -10.27279    0.33249
       H    18.97143  -12.84755    6.95662
       O    18.90908  -13.64411    6.43745
      H1    18.19116  -13.62241    5.79347
       H    19.28551  -15.77438   -0.88916
       O    18.98842  -16.27605   -1.71087
      H1    19.89794  -16.37676   -2.05495
       H    16.04287  -16.68201   -4.56449
       O    15.64881  -16.93598   -5.44142
      H1    14.78733  -17.32654   -5.14414
       H    13.30571   -8.86176    3.39967
       O    14.11629   -9.27381    2.98792
      H1    14.17039  -10.04802    3.48873
       H    17.10264  -11.25509    0.78598
       O    16.68204  -10.36478    0.64962
      H1    17.37470   -9.76983    0.82828
       H    17.15876  -13.91496    3.56735
       O    16.86098  -13.31229    4.30582
      H1    15.89637  -13.60440    4.30805
       H     9.23384  -18.56077   -1.52645
       O     9.39720  -17.71300   -1.09360
      H1    10.10151  -17.38849   -1.72554

