180
frame 4 | Written by MDAnalysis XYZWriter (release 2.4.3)
       H     8.65078    9.60754    1.71796
       O     8.79943    9.27817    2.65311
      H1     8.80914   10.11621    3.12074
       H    15.34502    4.28161    4.36232
       O    14.53626    4.80496    4.59099
      H1    13.82973    4.15814    4.60643
       H     7.41001   16.30020    2.76134
       O     7.05105   15.39278    2.91441
      H1     7.83270   14.83008    3.18138
       H    18.30702   12.44036    3.88647
       O    18.03322   13.19793    4.46146
      H1    17.19497   12.80288    4.81198
       H    12.46081   14.93898    0.59203
       O    12.16689   14.60919    1.49578
      H1    12.08596   15.49983    1.87947
       H    15.13103   11.25863    5.39189
       O    15.59601   12.10461    5.24324
      H1    14.93055   12.72911    4.90536
       H    18.41484   11.40775    2.23216
       O    17.54154   11.14318    2.66404
      H1    17.74922   10.19822    2.85589
       H    17.85851    7.08899    6.02068
       O    17.05739    7.15755    5.51751
      H1    16.86565    6.24198    5.31586
       H    15.80218   11.01544   -0.02529
       O    16.49422   10.37952    0.14504
      H1    16.67825   10.56218    1.06491
       H    16.05829   14.54684    2.45123
       O    16.81053   15.07965    2.77668
      H1    17.22348   14.42454    3.40137
       H    12.41198   17.81187    2.21713
       O    11.97889   17.03844    2.62289
      H1    12.25891   17.24104    3.55930
       H    13.57493    7.36133   -5.10390
       O    12.75609    7.67973   -4.67679
      H1    13.24535    8.34071   -4.07602
       H     7.92654   13.09347    0.84461
       O     8.08198   12.10938    0.94210
      H1     7.49563   11.87269    1.63840
       H    16.64706    8.27851    0.10445
       O    16.98010    7.40722   -0.18606
      H1    17.29671    7.07301    0.68086
       H    17.36111    7.10783    2.72522
       O    17.62439    6.36945    2.14378
      H1    17.48596    5.62021    2.78343
       H    16.73802    8.77846   -4.65396
       O    15.90000    9.28235   -4.76305
      H1    15.38753    9.26350   -3.96518
       H    13.87124   14.79199   -1.34159
       O    12.88697   14.99373   -1.37733
      H1    12.50024   14.17780   -1.63784
       H    11.64979   12.06198   -2.29957
       O    11.81876   11.48317   -1.48456
      H1    11.25234   11.95352   -0.85904
       H    11.50508   16.79946    5.23627
       O    12.30659   17.33371    5.26050
      H1    11.97119   18.04184    5.83203
       H    19.02535   15.48287    0.95696
       O    19.24833   16.42561    0.96966
      H1    18.59706   16.82265    1.55122
       H    14.07289   11.57404    2.32396
       O    14.79625   12.05758    1.97541
      H1    15.49045   11.56142    2.48286
       H    14.16062   10.25686   -3.07943
       O    13.90302    9.32362   -2.92411
      H1    13.95667    9.18662   -1.99638
       H    10.15025   16.11128    0.29610
       O     9.37294   16.59978   -0.06626
      H1     9.37324   17.36079    0.52774
       H    13.05537    6.46363    6.40453
       O    12.55505    6.26313    7.22951
      H1    12.22568    7.13514    7.33025
       H    14.19988   12.12967    0.29413
       O    14.39369   12.05758   -0.70763
      H1    13.47823   11.74820   -0.92249
       H     8.55429   13.48007    4.51070
       O     9.10528   13.79023    3.78744
      H1     9.62976   14.48418    4.26458
       H    11.21939   13.59829   -3.96695
       O    11.56906   12.69026   -3.82805
      H1    10.86042   12.19467   -4.27297
       H    13.51414    7.60430    2.35643
       O    13.13128    8.46054    2.28328
      H1    13.01511    8.62440    1.38138
       H     9.77963    5.02724    0.03441
       O    10.53771    5.66636    0.18852
      H1    11.18087    4.90854    0.22923
       H    16.97714   10.95298   -3.41786
       O    17.24859   11.42807   -2.63363
      H1    16.68159   11.01715   -1.87140
       H     9.48700   11.83998    4.38220
       O     9.63729   11.02082    4.87054
      H1    10.47036   10.74441    4.45822
       H    16.60884    6.83923   -2.71174
       O    16.08203    6.02708   -2.60617
      H1    15.52928    6.34113   -1.86389
       H    14.46597    4.29045    1.87317
       O    13.76930    5.00731    1.73580
      H1    13.71332    5.19131    2.67186
       H    13.28029    9.38591    5.26252
       O    14.24182    9.71107    5.42655
      H1    14.67366    8.86302    5.70001
       H     8.85015   13.09796   -1.11473
       O     9.72486   13.36533   -1.43134
      H1     9.46497   13.50664   -2.32556
       H    16.54293   14.00490   -4.17145
       O    17.32737   14.03719   -3.64377
      H1    17.38161   13.15562   -3.30311
       H    10.50217    6.72810    1.69391
       O    10.21590    6.96999    2.59364
      H1     9.80546    7.86194    2.47066
       H    15.34898    6.74593   -0.12580
       O    14.42530    6.45600   -0.31225
      H1    14.18400    5.94390    0.55860
       H    17.23634   17.94234    3.98069
       O    17.14631   17.89808    4.92830
      H1    16.31924   17.39141    5.09737
       H     9.76849    9.18181   -2.16524
       O    10.18189    9.46258   -1.36849
      H1    10.68799   10.29811   -1.52130
       H     9.59608   15.69106    6.47348
       O    10.24231   15.55026    5.71655
      H1    10.78206   14.82865    6.08050
       H    12.02463   11.67042    2.57078
       O    12.39676   11.23083    3.36940
      H1    12.48669   10.31327    3.10383
       H    10.04066   12.45627    1.18682
       O    10.96533   12.28755    1.19937
      H1    11.29810   13.25147    1.36504
       H    10.93132    8.39546    5.69473
       O    11.54452    8.63385    4.98768
      H1    11.49078    7.91039    4.36227
       H    14.01828   16.89375    5.20827
       O    14.86641   16.42736    5.45344
      H1    14.78976   15.65279    4.81527
       H    19.66901   10.12127    0.52242
       O    19.27044   10.86928    0.09796
      H1    18.35632   10.54760   -0.02426
       H     8.36332    9.44347   -0.52909
       O     7.63691    9.30061    0.06984
      H1     7.26133   10.20304    0.04960
       H    11.68768    8.72522   -0.93682
       O    12.59633    8.65381   -0.63850
      H1    12.83358    7.72077   -0.66383
       H    16.35513   14.89213   -2.02582
       O    15.51257   15.48062   -1.95295
      H1    15.15150   15.40143   -2.87637
       H    14.89637   15.97837    7.26457
       O    14.64964   15.48766    8.10088
      H1    14.13087   16.00326    8.73120
       H    13.86273   11.54316    8.28515
       O    12.93428   11.66825    7.95611
      H1    12.88386   10.90090    7.41636
       H    12.74840   13.03489    7.18885
       O    12.77659   13.78053    6.54514
      H1    13.33668   14.41343    7.06944
       H    13.39253   13.68149    4.70897
       O    14.07457   14.07979    4.17312
      H1    13.89237   13.81441    3.23474
       H    15.59217   12.48836    7.09380
       O    15.59733   12.51067    8.09047
      H1    15.32224   13.45480    8.23603
       H    13.38398   11.94885   -3.87816
       O    14.20738   11.68903   -4.32904
      H1    13.76813   11.29938   -5.05888
       H    12.70139   16.43580   -2.35646
       O    12.61064   17.35015   -2.65364
      H1    12.68638   17.83273   -1.79888
       H     8.46974   10.20906    6.03448
       O     8.00594    9.84623    6.81832
      H1     8.31787   10.54590    7.41254
       H    18.96439    7.89949   -3.47369
       O    18.02599    7.82707   -3.22227
      H1    18.23149    7.98712   -2.23840
       H    16.82877   16.80495    2.35347
       O    17.17174   17.71961    2.10066
      H1    16.32269   18.05269    1.73284
       H    17.36258    8.27249    4.18094
       O    17.52435    8.62933    3.30219
      H1    18.52021    8.46326    3.26781

