180
frame 11 | Written by MDAnalysis XYZWriter (release 2.4.3)
       H    13.27564   18.99652   -2.89136
       O    13.07313   19.79372   -3.42311
      H1    13.23179   19.27980   -4.25860
       H     1.50646   14.88769  -12.50241
       O     2.06082   15.60002  -12.10969
      H1     1.68184   16.35347  -12.68399
       H     9.06439   10.76878  -10.50777
       O     9.58247   11.57652  -10.31666
      H1     8.88628   12.21055  -10.34658
       H     6.18918   12.15373  -12.00214
       O     5.70965   12.96361  -11.77396
      H1     5.63593   13.41943  -12.65213
       H     9.11405   14.07344   -6.70271
       O     9.85930   14.59223   -6.39560
      H1     9.51058   14.99327   -5.57057
       H     8.84229   18.08111  -15.70651
       O     9.27429   18.30394  -16.57142
      H1     9.15675   19.26395  -16.40249
       H    13.89009   17.92397   -5.83709
       O    14.63568   18.35772   -5.39123
      H1    14.91395   17.61028   -4.75571
       H    16.07036   18.28369   -7.40432
       O    15.64360   18.35631   -8.34778
      H1    16.43197   17.87580   -8.63183
       H     4.96299   11.87858   -3.38052
       O     5.88931   11.45503   -3.23363
      H1     6.18585   11.50008   -4.15672
       H     3.41760   19.77890  -15.45398
       O     4.12104   19.16151  -15.18228
      H1     4.91557   19.79679  -15.14441
       H     1.85763   18.23434   -4.23716
       O     1.16586   18.26401   -4.85317
      H1     1.28705   17.40749   -5.33392
       H     3.57960   17.47414  -11.82478
       O     4.18245   18.18482  -11.62698
      H1     3.74932   18.90350  -12.17122
       H     9.61945   18.85548  -11.66643
       O    10.10281   19.69681  -11.66122
      H1    10.56004   19.53445  -12.49050
       H    14.17053   14.51835   -2.70120
       O    13.52743   13.88225   -2.30386
      H1    12.71065   13.90647   -2.80138
       H    10.62444   13.28092  -15.33253
       O    10.21320   12.42617  -15.42238
      H1    10.57216   12.13105  -16.28018
       H    11.35250   19.95725  -10.69099
       O    12.11287   19.99143  -10.08029
      H1    12.31056   19.05061  -10.01097
       H    12.70872   12.47116   -8.68972
       O    12.25137   12.88236   -7.94378
      H1    11.62422   13.45854   -8.37435
       H    10.31241   16.58598   -8.76401
       O    10.67479   15.65325   -8.79853
      H1    10.46085   15.43550   -7.88582
       H     8.59538   13.39090   -2.36861
       O     8.00567   14.17937   -2.28586
      H1     8.41041   14.48356   -1.49876
       H     1.09677   13.81336   -8.79447
       O     0.24775   13.43296   -8.64575
      H1    -0.12772   14.11320   -8.07077
       H     8.35159   19.07111   -3.20709
       O     7.81959   18.26525   -3.51926
      H1     8.45396   17.68506   -3.93520
       H    11.26328   13.24183   -5.27514
       O    11.98573   13.39684   -4.59549
      H1    11.99000   12.52869   -4.09360
       H     3.89892   16.37979   -5.47974
       O     3.57988   15.43423   -5.63670
      H1     3.45138   15.34607   -6.55972
       H    12.57274   14.11254  -15.13334
       O    11.83224   14.72628  -14.90935
      H1    12.17179   15.63785  -15.18447
       H     4.43048    9.61902  -10.25644
       O     5.07955   10.29331  -10.20722
      H1     4.60455   11.04453   -9.79557
       H     6.37747   10.88798   -7.73555
       O     6.99861   10.73377   -8.52138
      H1     6.32537   10.43067   -9.16256
       H     8.96315   11.49123   -1.89081
       O     9.41027   11.65042   -2.72766
      H1     9.05705   11.04360   -3.45152
       H     8.70412   10.50361   -5.80645
       O     8.51116    9.92415   -5.01659
      H1     8.96146    9.15450   -5.30301
       H     0.94941   16.56901  -10.84362
       O     0.62794   17.09248  -10.07509
      H1     0.68221   18.01914  -10.27850
       H     4.82389   14.02756   -2.94944
       O     5.16222   14.82741   -2.53273
      H1     6.07882   14.43679   -2.45801
       H     7.40870    8.66370   -6.31735
       O     6.70526    8.59449   -6.90677
      H1     6.81603    9.27897   -7.62106
       H    10.83363   11.98225  -12.04180
       O    11.59134   12.19460  -12.63204
      H1    11.38002   13.16542  -12.59616
       H     9.94810   18.73109   -6.60893
       O    10.66302   19.10565   -6.09722
      H1    10.52173   18.72968   -5.15911
       H     8.10720   16.13568  -10.54053
       O     7.92565   15.68920   -9.68067
      H1     8.75268   15.28290   -9.48324
       H    12.55497   15.63999  -11.90580
       O    11.73999   15.13699  -12.20590
      H1    11.95776   15.00874  -13.15973
       H     9.15501   16.80177  -12.90623
       O     9.31664   16.93422  -11.95854
      H1    10.05900   16.35011  -11.72812
       H    16.82696   15.47330   -6.47260
       O    16.23390   15.00621   -7.16689
      H1    15.52288   14.66970   -6.65202
       H     5.40096   18.89220  -10.35769
       O     5.50130   19.38847   -9.44315
      H1     6.38580   19.74682   -9.57216
       H    10.60409   12.07883   -7.68756
       O     9.68524   11.74217   -7.51740
      H1     9.37852   11.38337   -8.40390
       H     8.54194   16.14754  -15.06802
       O     8.45455   16.85235  -14.34161
      H1     7.51231   16.93117  -14.29291
       H    13.04642   14.68778   -5.22290
       O    13.81096   15.19584   -5.47418
      H1    13.49538   15.65532   -6.31166
       H     8.53166   17.05141   -8.62877
       O     8.94431   17.80053   -8.21667
      H1     8.81194   18.51474   -8.86876
       H    16.22124   15.75410   -3.27796
       O    15.22386   15.91740   -3.24648
      H1    14.82768   15.60667   -4.14917
       H    12.33573   16.60807   -7.88104
       O    13.05012   16.94197   -7.38681
      H1    13.74153   16.99669   -8.03643
       H    14.73433   12.05577  -10.33673
       O    14.20918   11.64531   -9.61493
      H1    14.38852   10.71438   -9.93704
       H     5.27219   15.01984  -13.97504
       O     4.76784   14.19678  -13.86036
      H1     3.84104   14.54339  -13.58668
       H     4.32553   13.45597   -8.56995
       O     4.56301   12.64330   -9.01161
      H1     5.11849   12.98473   -9.70441
       H    12.69126    9.57270   -6.55869
       O    12.23820    9.81711   -5.73188
      H1    12.16399   10.79162   -5.73790
       H     8.51661   14.94300  -17.09291
       O     8.27459   14.67227  -16.16848
      H1     8.97477   14.03349  -15.94054
       H     2.98636   12.97271   -3.63013
       O     3.79476   13.17140   -4.09989
      H1     3.68809   14.00660   -4.58402
       H    12.01197   16.55235   -1.52509
       O    11.27199   15.94077   -1.68450
      H1    10.59174   16.11456   -1.05132
       H     5.24935   17.61641  -13.24895
       O     5.55759   17.09750  -14.02402
      H1     5.05766   17.58859  -14.70826
       H     4.93386   11.95282   -6.82543
       O     5.53982   11.46877   -6.31155
      H1     4.99695   10.69658   -6.04241
       H     5.63590   17.56308   -8.34922
       O     5.48629   16.62653   -8.29765
      H1     6.24787   16.24400   -8.81632
       H     3.53092   17.36102   -2.91565
       O     3.71594   18.31566   -3.10006
      H1     3.66229   18.63695   -2.19409
       H     2.20746   16.03478   -9.15337
       O     2.64987   15.43050   -8.52389
      H1     3.51165   15.87865   -8.51416
       H     8.43922   15.45946   -3.63312
       O     9.13605   15.95484   -4.09896
      H1     9.87054   15.87234   -3.48000
       H    11.13080   17.89062  -16.04239
       O    11.97480   17.39765  -16.08563
      H1    12.67318   18.07380  -16.15249
       H    14.77457   17.42701  -11.28600
       O    14.08089   17.70885  -10.65408
      H1    14.50560   17.88792   -9.76869
       H     6.87967   17.81139   -2.04806
       O     6.47430   17.26233   -1.32006
      H1     5.93653   16.60787   -1.85175

