180
frame 11 | Written by MDAnalysis XYZWriter (release 2.4.3)
       H   -16.92591  -16.97067    5.44089
       O   -17.27610  -17.64622    4.81422
      H1   -18.17602  -17.21762    4.73380
       H    -8.40884  -17.36556   13.19289
       O    -8.35085  -17.71964   14.09064
      H1    -7.37106  -17.74072   14.25244
       H    -3.39709  -14.51269    3.72358
       O    -3.47032  -13.57330    3.62147
      H1    -3.93780  -13.26278    4.39364
       H   -10.43848  -10.30137    9.05161
       O   -10.47529  -10.76102    9.94003
      H1   -10.29176  -10.05609   10.52785
       H    -8.85407  -13.01878    1.38955
       O    -8.54868  -12.15740    1.37187
      H1    -7.88825  -12.13680    2.09847
       H    -5.26316  -12.75581    2.45261
       O    -5.74075  -13.51410    2.09378
      H1    -5.06182  -14.18828    2.28265
       H    -4.93383  -15.77260    9.30782
       O    -5.72694  -16.03580    9.77838
      H1    -6.50425  -15.54996    9.51150
       H   -10.67397  -12.02073    1.68783
       O   -11.43614  -11.65559    2.06323
      H1   -11.18688  -11.74076    2.94379
       H   -12.35493  -18.22885    5.65188
       O   -11.71531  -18.11509    6.33166
      H1   -12.07862  -17.52125    7.00548
       H    -9.74183  -15.31031    4.41379
       O    -9.79821  -14.34493    4.38691
      H1    -8.93028  -14.09667    4.76161
       H    -5.28019  -11.54352   10.49398
       O    -6.02714  -11.91539   10.99061
      H1    -6.66998  -12.04909   10.28511
       H   -12.29642  -14.80364    5.43730
       O   -12.21833  -14.98952    6.38780
      H1   -13.11920  -15.19801    6.63500
       H    -5.58408  -13.48374   11.62244
       O    -5.36559  -14.31783   12.12039
      H1    -5.75931  -14.95098   11.49660
       H    -7.50114  -17.89307   11.16731
       O    -8.03322  -17.06784   11.27205
      H1    -8.90385  -17.24287   11.01879
       H    -2.58584  -18.12105   10.66683
       O    -2.58012  -18.03342    9.72853
      H1    -1.91552  -18.54077    9.26025
       H    -7.78596  -18.31673    0.44998
       O    -8.22996  -18.74192   -0.27429
      H1    -8.28863  -18.00373   -0.94650
       H    -6.03602  -17.00416    1.74466
       O    -6.95664  -17.38075    1.94423
      H1    -6.80470  -17.88441    2.76358
       H    -5.75593  -18.86343    8.25730
       O    -6.26840  -18.62830    9.04570
      H1    -6.08706  -17.69285    9.10728
       H   -13.92426  -17.52974    4.01213
       O   -13.43584  -18.34859    4.25676
      H1   -14.05428  -18.94506    4.67965
       H   -15.80766  -13.72936    7.51917
       O   -16.56352  -13.46300    8.05559
      H1   -16.77456  -12.51262    7.78847
       H   -14.01315  -13.43936   10.13942
       O   -13.59657  -14.35257   10.07916
      H1   -14.01382  -14.73650   10.82878
       H    -3.77340  -17.82506    3.52511
       O    -3.19215  -17.05102    3.76601
      H1    -2.27914  -17.28047    3.65994
       H   -14.42334  -18.21985   13.62521
       O   -15.41451  -18.45190   13.60694
      H1   -15.74946  -17.80331   13.02148
       H   -14.08111  -14.90692    8.45864
       O   -14.51464  -15.29007    7.65478
      H1   -14.80113  -16.13937    8.11514
       H    -4.52781  -14.08396    8.22440
       O    -5.27218  -13.73686    7.68935
      H1    -4.75195  -13.19252    7.05719
       H   -10.66955  -17.36736    4.62122
       O   -10.04292  -17.03671    4.00510
      H1    -9.26160  -17.62942    4.04917
       H    -3.01457  -16.36853    8.98354
       O    -3.28291  -15.47333    8.78751
      H1    -3.05366  -15.02030    9.57611
       H    -9.96170  -16.84778    8.01981
       O   -10.24678  -15.93794    7.97438
      H1   -10.83812  -15.86090    7.23532
       H    -5.91694  -18.69176    4.78918
       O    -5.22288  -19.25279    4.33494
      H1    -5.88473  -19.93076    3.98775
       H    -6.19517  -12.15703    7.65006
       O    -7.01960  -11.74711    7.32831
      H1    -7.64399  -12.49932    7.32226
       H   -16.05969  -18.16794    8.62740
       O   -15.20033  -17.87052    8.36605
      H1   -14.68795  -18.04159    9.15730
       H   -10.72949  -15.94380    9.95174
       O   -10.74618  -16.43223   10.77482
      H1   -10.66936  -15.71994   11.40549
       H    -6.54949  -14.21392   13.91705
       O    -7.37991  -14.74053   14.15777
      H1    -7.52088  -15.22762   13.36975
       H   -15.45495  -16.61701   10.95629
       O   -16.00627  -16.42461   11.77571
      H1   -16.81142  -16.31349   11.27031
       H    -9.90527  -11.12162    4.94419
       O   -10.69777  -11.66009    4.75726
      H1   -10.30209  -12.53154    4.65922
       H    -5.34771  -16.39602    6.53953
       O    -5.18181  -17.31103    6.79259
      H1    -4.24985  -17.36204    6.67748
       H    -9.93161  -16.80273    2.27389
       O    -9.94617  -16.60273    1.29045
      H1    -9.01267  -16.64572    0.99485
       H   -13.44045  -15.48694    2.95986
       O   -14.15077  -15.74127    3.62086
      H1   -14.39690  -14.96488    4.13098
       H    -2.87208  -16.05940   13.21944
       O    -3.08558  -16.93825   12.88155
      H1    -3.99903  -17.17678   13.05814
       H    -7.55234  -16.82811    7.62784
       O    -7.54012  -15.88592    7.56173
      H1    -8.43565  -15.62605    7.72661
       H   -12.09162  -12.17161    6.25460
       O   -12.85630  -11.80936    6.75977
      H1   -13.56639  -12.13881    6.19444
       H    -9.76109  -12.53386    7.95332
       O    -9.27633  -13.16529    7.36852
      H1   -10.04618  -13.68573    7.05926
       H   -14.20059  -12.83774    4.07792
       O   -14.60763  -13.20383    4.89566
      H1   -15.57218  -13.13633    4.71617
       H    -6.34893  -14.08501    5.33101
       O    -6.89763  -14.23659    4.57243
      H1    -6.40102  -13.94498    3.82265
       H    -9.07095  -15.00543   15.22952
       O   -10.00178  -15.32431   15.38913
      H1   -10.15826  -16.15419   14.91718
       H   -12.97828  -16.83595   -1.40586
       O   -13.23682  -17.24416   -0.54039
      H1   -12.51129  -17.82184   -0.26555
       H   -12.65787  -16.08939    0.76917
       O   -12.37582  -15.32695    1.35838
      H1   -11.38129  -15.52764    1.47917
       H    -3.74826  -16.34435    2.20917
       O    -4.56176  -16.02586    1.67054
      H1    -4.17688  -15.53329    0.90961
       H   -10.75083  -19.78724   -0.29506
       O   -11.27422  -19.02875    0.10415
      H1   -10.55444  -18.52250    0.55036
       H   -12.03883  -13.59656   10.72188
       O   -11.26479  -13.37348   11.31021
      H1   -10.92938  -12.66544   10.71096
       H   -13.11368  -17.89483   11.38477
       O   -13.36765  -17.52195   10.51193
      H1   -12.64872  -16.86040   10.28929
       H    -2.40919  -18.96632    6.47788
       O    -2.33754  -18.04350    6.35760
      H1    -2.32000  -17.78220    5.45699
       H    -5.51006  -18.29816   13.55088
       O    -5.58916  -17.55413   14.11669
      H1    -5.03060  -17.84080   14.86706
       H    -3.76355  -11.54069    5.42542
       O    -4.56727  -12.08886    5.56036
      H1    -5.30800  -11.51172    5.30952
       H    -6.30148  -19.93473   11.91729
       O    -6.08884  -19.02498   11.83055
      H1    -5.93612  -18.95500   10.89779
       H    -7.47724  -17.40601    4.95055
       O    -7.74356  -18.32954    4.84450
      H1    -8.26141  -18.46334    5.73522
       H   -15.34932  -15.37642    1.30641
       O   -16.04177  -15.86210    1.75891
      H1   -15.63923  -16.07305    2.59487
       H    -8.67108  -19.24075    7.66013
       O    -9.16041  -18.53507    7.20454
      H1    -9.94555  -18.99944    6.87921
       H   -11.79896  -18.60269   13.08609
       O   -12.81287  -18.48562   12.92710
      H1   -13.05115  -19.40858   13.12762
       H    -3.51909  -14.44118   11.51190
       O    -2.77853  -14.11887   10.93676
      H1    -1.99142  -14.58823   11.30499

