180
frame 4 | Written by MDAnalysis XYZWriter (release 2.4.3)
       H    16.03257   12.96770    3.66719
       O    15.93162   12.86142    2.70382
      H1    16.80013   12.90675    2.33433
       H    16.86630    5.45608    4.88254
       O    17.78816    5.06471    4.83053
      H1    18.32490    5.60808    5.47131
       H    13.19066    4.19478    2.04396
       O    13.80009    4.45916    1.33608
      H1    14.56604    4.79211    1.79525
       H    18.60537    5.23457    2.02554
       O    19.29102    5.80330    2.44482
      H1    19.91590    5.86856    1.74715
       H    12.31234    5.62583   -6.57185
       O    11.96141    5.06650   -5.86149
      H1    12.35931    5.51660   -5.08709
       H    14.17513   11.72641   -4.21440
       O    14.53905   12.31736   -3.57067
      H1    13.94834   13.07916   -3.50578
       H    12.70738    8.63135    2.68707
       O    12.80965    7.70330    2.57201
      H1    13.30764    7.61072    1.76640
       H     7.49327   10.31920    3.42533
       O     8.23870   10.62550    2.83969
      H1     7.91250   11.27871    2.25016
       H    16.37122   10.45767   -3.19374
       O    17.13833   10.14739   -2.66128
      H1    16.66035    9.90430   -1.88640
       H    14.76832    2.79222   -6.24342
       O    14.71076    2.98137   -5.28003
      H1    14.69565    3.98787   -5.30239
       H    14.49758   10.82328   -0.15379
       O    15.25150   11.19335    0.28678
      H1    14.85516   11.50841    1.07816
       H    12.01610    6.45221   -1.72222
       O    12.07271    6.68032   -0.77340
      H1    11.28863    7.01899   -0.34342
       H    10.22607    3.14832   -1.94885
       O    10.95948    3.78322   -2.06728
      H1    11.41658    3.51837   -2.84618
       H    14.48445    4.47938    5.70827
       O    14.64730    3.69482    5.14084
      H1    13.76312    3.69025    4.67002
       H     7.74876    9.90198   -2.26984
       O     7.82440    9.35677   -3.01341
      H1     7.34052    9.79803   -3.70608
       H    15.95200    6.58765   -5.91660
       O    15.33568    5.95115   -5.48509
      H1    15.92489    5.73609   -4.73751
       H    12.50957    4.73958    4.14229
       O    12.41429    3.86476    3.79586
      H1    11.59931    3.48918    4.21030
       H     9.22551    8.19181    4.82046
       O     8.95668    7.24854    4.68145
      H1     9.31083    7.00162    3.86715
       H    17.18575    1.15540    1.42260
       O    17.51416    1.70111    0.76160
      H1    18.51417    1.63271    0.76028
       H     9.11419   10.12385   -0.10486
       O     8.25447   10.39743   -0.37307
      H1     8.09819   11.16391    0.19326
       H    11.52505    7.19581    7.28126
       O    11.58971    8.00397    6.76660
      H1    10.76495    8.10017    6.30779
       H    14.41360    0.24226    0.42161
       O    14.00388    0.99753   -0.02959
      H1    14.72007    1.50015   -0.42739
       H    17.91286    9.26970    2.16586
       O    18.23561    9.65312    2.99059
      H1    18.89567    9.05053    3.37859
       H    17.09132    9.37968    4.42795
       O    16.52637    9.38726    5.21075
      H1    16.25487    8.50035    5.38494
       H    16.54765    9.94302    0.46938
       O    16.95218    9.11116    0.57902
      H1    16.15130    8.53413    0.74118
       H    11.78688   10.76150   -2.24263
       O    12.03054    9.86855   -2.58633
      H1    11.44534    9.53578   -3.24663
       H    10.37326    4.81157    1.39166
       O    10.18036    4.05949    0.78907
      H1    10.86054    4.20233    0.16176
       H    15.59254    6.76717    6.51618
       O    15.78570    6.84452    5.53704
      H1    14.90924    6.79794    5.14831
       H     7.31083    6.91955    3.71091
       O     6.56924    6.65803    3.12442
      H1     6.91195    6.38978    2.30156
       H     9.88502   10.64614    5.39740
       O    10.09562    9.92294    4.75807
      H1     9.66426   10.20837    3.90290
       H     8.05268    7.77883    0.23826
       O     8.91513    7.33385    0.04757
      H1     8.67412    6.40436    0.07296
       H    12.68682    0.48177   -1.17957
       O    12.03792    0.45649   -1.89825
      H1    11.63091   -0.46000   -1.88560
       H    12.05289    1.43583    1.27193
       O    11.30876    1.50144    1.87697
      H1    10.68114    2.12925    1.47914
       H    12.98003    7.04292    4.29342
       O    13.13193    6.42729    5.06911
      H1    12.54253    6.85569    5.72293
       H    16.79875    1.74461   -0.82877
       O    16.27094    1.64456   -1.66259
      H1    16.61315    2.29829   -2.29646
       H    13.16933    2.53027   -4.23418
       O    12.29670    2.12724   -4.08299
      H1    12.30447    1.84940   -3.15840
       H    18.06482    5.02382   -2.68157
       O    18.57305    5.80793   -2.59748
      H1    18.37025    6.41410   -3.31037
       H    13.49123    5.40081   -2.89224
       O    12.91568    6.12589   -3.25130
      H1    13.44038    6.78492   -3.75164
       H    16.24308    3.37493   -4.24912
       O    17.03755    3.59889   -3.66219
      H1    17.82195    3.24158   -4.07705
       H     9.36032    5.23516   -5.04304
       O     9.16404    4.73514   -5.86486
      H1    10.04683    4.48044   -6.15833
       H    13.51974    9.33384    6.56796
       O    13.99096    9.94277    6.00445
      H1    14.85269    9.59326    5.80330
       H    12.68334   10.31414   -6.46393
       O    13.47745   10.41735   -5.96014
      H1    13.50883    9.56631   -5.42427
       H    17.32829    3.34016    2.10869
       O    17.10175    4.27183    2.13202
      H1    17.34569    4.56955    3.02931
       H    19.80844    8.39542   -3.88266
       O    18.86730    8.29854   -3.85664
      H1    18.56015    8.97909   -3.25608
       H     7.04483    7.80669   -2.38033
       O     6.48267    7.02333   -2.45409
      H1     6.09301    7.15521   -3.29162
       H     9.91977    7.09181    1.50003
       O    10.28055    6.48376    2.17456
      H1    11.13999    6.93615    2.48762
       H    11.72129   12.52096   -0.59264
       O    11.72123   12.59616   -1.55000
      H1    12.42754   13.23856   -1.68776
       H    14.95176    6.85426    0.19834
       O    14.30427    7.59400    0.28308
      H1    13.46231    7.29709   -0.08038
       H    13.62090    9.53013   -1.98293
       O    14.58381    9.45217   -1.85826
      H1    14.73402    8.74792   -1.25245
       H    14.82155    7.42646   -4.43715
       O    14.12821    8.14062   -4.36125
      H1    14.36759    8.61169   -3.59779
       H    15.92413   12.56021   -2.36803
       O    16.24481   13.18553   -1.64150
      H1    16.34540   12.53333   -0.89651
       H    18.44156    8.36436   -0.19624
       O    19.22725    8.01983   -0.63096
      H1    18.78160    7.34798   -1.13669
       H    13.01593   10.15999    4.30683
       O    12.39042   10.37676    3.55733
      H1    11.55095   10.24158    4.02529
       H    13.10807   13.50089    1.95661
       O    12.56872   12.78263    1.64470
      H1    12.59784   12.09286    2.30869
       H    10.33144    7.60437   -3.60393
       O    10.28462    8.51581   -3.91311
      H1     9.47545    8.78721   -3.56452
       H    15.38687    4.09292   -1.82199
       O    14.46141    4.33154   -1.91578
      H1    14.13464    4.54097   -1.05917
       H    10.00279   13.24493    3.46701
       O     9.96333   13.31498    2.45703
      H1    10.88351   13.21374    2.13388
       H     6.85789    4.60824    0.76348
       O     7.60411    5.17777    1.11161
      H1     8.27759    4.48205    1.05516
       H    16.85564    5.23815    0.41206
       O    16.37541    5.88860   -0.04730
      H1    16.81642    6.12428   -0.84222
       H     9.74070    5.40448   -2.69131
       O     9.29362    6.12890   -3.15780
      H1     8.55718    6.41864   -2.63432

