180
frame 3 | Written by MDAnalysis XYZWriter (release 2.4.3)
       H   -17.71141   -0.99104    5.30020
       O   -17.46537   -1.72340    5.80989
      H1   -17.90780   -1.54888    6.64119
       H   -16.77919   -6.56940    0.76367
       O   -16.29836   -6.11447    1.44228
      H1   -15.80694   -6.88328    1.84198
       H   -11.29494   -2.69403   -0.19339
       O   -11.39076   -1.75925   -0.39657
      H1   -10.52673   -1.37843   -0.10516
       H   -16.52274   -0.41962   11.97086
       O   -17.33767   -0.81446   12.38605
      H1   -17.47906   -0.23914   13.18156
       H   -14.45479    1.26607    3.03156
       O   -14.32138    1.39585    4.00143
      H1   -14.03048    2.34167    3.97426
       H   -15.02464    3.56383    1.47535
       O   -14.72836    2.65682    1.33597
      H1   -15.48338    2.05725    1.13260
       H    -9.59747   -1.59995    7.47466
       O   -10.48211   -1.59640    7.13294
      H1   -10.46131   -2.58146    6.79895
       H   -10.94862    2.35368    4.37546
       O   -10.91879    1.60120    5.00143
      H1   -11.54967    0.97748    4.54163
       H   -12.71727   -0.79719   10.52369
       O   -11.94617   -0.93017    9.91777
      H1   -12.47387   -1.20559    9.17566
       H   -19.01732   -2.19089    1.08875
       O   -18.93538   -2.49609    0.14050
      H1   -19.82829   -2.49569   -0.16518
       H   -12.77413   -4.45838    0.03213
       O   -11.87871   -4.57343   -0.29366
      H1   -11.54028   -5.07278    0.48102
       H   -13.10131   -6.95547    4.53289
       O   -13.27796   -6.13763    3.98229
      H1   -14.24367   -6.07367    4.14726
       H   -18.54006   -3.14795    5.08686
       O   -18.89206   -4.00772    4.81542
      H1   -19.47059   -3.82777    4.05742
       H   -11.33829    3.24895    7.96455
       O   -11.23740    4.22107    7.89566
      H1   -10.96658    4.32960    6.95580
       H    -8.27673    2.83130    6.86937
       O    -8.87540    2.11360    7.10965
      H1    -9.61055    2.17100    6.45465
       H   -12.01375    0.58967    8.37922
       O   -12.01122    1.44399    7.86774
      H1   -11.72421    1.10961    7.02485
       H   -12.21152   -6.75553    7.54689
       O   -11.26933   -6.93888    7.53428
      H1   -10.90536   -6.32382    6.85493
       H    -8.83246   -2.58422    3.43626
       O    -8.23800   -1.88048    3.20481
      H1    -7.36158   -2.29368    3.17376
       H   -12.61595    1.20036    0.85635
       O   -12.73231    0.25502    1.02255
      H1   -12.38138   -0.13578    0.22256
       H   -19.32428   -4.70592    6.64513
       O   -19.22556   -4.65068    7.58836
      H1   -19.08332   -3.71351    7.73937
       H    -6.90490    2.42050    3.71817
       O    -7.83933    2.50982    3.52789
      H1    -8.06392    1.65459    4.00214
       H   -12.79994   -5.65159   10.39511
       O   -13.19483   -6.52523   10.51190
      H1   -13.74309   -6.71664    9.74547
       H    -9.48541   -1.28495    1.52239
       O    -9.17975   -0.61672    0.86714
      H1    -8.22836   -0.92767    0.76416
       H   -17.42581    0.88149    0.27787
       O   -16.89924    0.96327    1.09493
      H1   -16.50702    0.05153    1.02973
       H   -15.28917   -4.54662    0.35256
       O   -14.44844   -3.95894    0.27835
      H1   -14.87283   -3.13978    0.47287
       H   -12.22632   -1.13831    4.40322
       O   -12.48069   -0.83280    5.29112
      H1   -11.78970   -1.18617    5.85547
       H   -16.67691   -5.95747    4.73103
       O   -15.83007   -5.44387    4.67651
      H1   -15.89629   -4.95921    5.50474
       H   -14.40628   -0.70918    1.56651
       O   -15.10201   -1.35437    1.61655
      H1   -14.72936   -1.86696    2.38528
       H   -17.99012    3.51664    3.20739
       O   -18.11154    3.44569    2.26553
      H1   -17.78464    2.55165    2.12737
       H   -14.97837    1.38939    6.26059
       O   -15.46191    1.43753    7.10976
      H1   -15.07566    2.25638    7.46797
       H    -9.70240   -1.63900    9.06864
       O    -8.73158   -1.47018    9.14677
      H1    -8.55925   -0.59449    9.48357
       H   -14.73437   -7.63659    7.64812
       O   -14.03017   -7.03903    7.82153
      H1   -14.30098   -6.25664    7.27454
       H    -9.85898    0.93205    1.77417
       O   -10.07830    1.83500    2.14986
      H1    -9.32229    2.08407    2.73118
       H   -18.27043   -5.25525    3.84705
       O   -18.10878   -5.98645    3.27244
      H1   -17.21687   -5.89947    2.84263
       H   -14.87951   -3.36124   12.16656
       O   -14.39974   -2.82209   11.50736
      H1   -13.43823   -3.09325   11.58358
       H   -19.99031    0.28344    4.50274
       O   -19.57800    0.54863    3.67515
      H1   -18.72111    0.87083    3.97613
       H   -11.09437    2.46876   -0.84391
       O   -11.50512    2.65427   -0.03118
      H1   -10.88470    2.43056    0.66265
       H   -13.75514   -4.13388    5.95890
       O   -13.22534   -4.86515    6.20590
      H1   -13.10054   -5.23372    5.32989
       H   -15.28603    4.44608    4.29850
       O   -14.37576    4.30598    4.07013
      H1   -14.23215    4.72954    3.24652
       H   -12.17807   -2.44251    2.80579
       O   -11.46697   -1.71601    2.75370
      H1   -11.86024   -1.14070    2.10445
       H    -9.65179   -4.56690    5.53215
       O    -9.95290   -4.32206    6.43932
      H1    -9.19649   -4.39018    6.96884
       H   -11.44952   -6.92353    1.72747
       O   -11.59334   -5.99672    1.92520
      H1   -12.25676   -6.12577    2.63105
       H   -15.54246    0.65962    9.00151
       O   -15.49114    0.19991    9.86245
      H1   -15.38435   -0.69218    9.43906
       H   -11.54903   -2.60460   10.51340
       O   -11.67477   -3.51172   10.79110
      H1   -10.83140   -3.69497   11.30484
       H   -18.56903    0.95307    9.57154
       O   -19.01736    0.37389    8.93028
      H1   -18.50030   -0.45434    9.01486
       H   -14.48645   -2.77084    9.09363
       O   -14.40533   -1.89990    8.65235
      H1   -14.54072   -2.17385    7.72719
       H   -14.04464    4.17003    7.38984
       O   -14.48741    3.68006    8.12531
      H1   -13.73326    3.42783    8.68203
       H   -12.42449    1.90851   11.40435
       O   -11.55345    1.84426   11.87752
      H1   -11.67699    2.69231   12.37623
       H   -14.25629    6.34815    6.28602
       O   -13.39955    5.90537    5.98493
      H1   -13.78603    5.25747    5.38095
       H   -14.20328   -2.90437    4.01912
       O   -13.82391   -3.07471    3.13072
      H1   -14.15320   -3.89426    2.86652
       H   -19.81191   -2.65045    9.20212
       O   -18.96156   -2.29268    8.86970
      H1   -18.35107   -2.68246    9.60881
       H   -16.31683   -4.82387   11.49920
       O   -15.84241   -5.45290   10.91882
      H1   -14.84124   -5.34215   11.10521
       H    -9.97821   -5.59423    3.22572
       O    -9.22246   -5.41848    3.79505
      H1    -9.20558   -6.32449    4.20053
       H   -15.70431   -1.80376    5.75532
       O   -14.77025   -2.14142    5.69381
      H1   -14.13376   -1.41987    5.49967
       H   -18.33633    4.37481    7.81208
       O   -18.50192    3.52152    7.40579
      H1   -19.09449    3.15843    8.08090
       H    -9.52422    0.61393    4.87890
       O    -8.55742    0.33244    4.91691
      H1    -8.59070   -0.50968    4.44408
       H   -16.55161   -5.52336    8.58940
       O   -16.49938   -5.09786    7.72969
      H1   -17.48518   -5.10594    7.49757
       H   -13.13048   -0.64578   12.84446
       O   -13.90466   -0.34157   12.31193
      H1   -14.18605   -1.15840   11.85651
       H   -17.44181    3.83841    5.71879
       O   -17.03682    4.42216    4.98449
      H1   -17.38422    5.30896    5.17355
       H   -16.48346    0.86834    4.34261
       O   -17.18154    0.91894    4.98081
      H1   -16.71698    0.95351    5.89333

