180
frame 3 | Written by MDAnalysis XYZWriter (release 2.4.3)
       H     8.63830  -12.13509   10.89053
       O     9.25843  -12.84724   10.71073
      H1     8.65808  -13.51292   10.33229
       H    10.97120  -17.28194   12.11689
       O    11.48742  -17.48731   11.32820
      H1    10.87794  -17.24363   10.65584
       H     7.09876  -17.57721   13.36182
       O     7.64888  -16.81883   13.14776
      H1     7.06277  -16.10423   13.19191
       H     6.52326  -18.54622   17.30873
       O     7.47795  -18.47124   17.12877
      H1     7.64982  -17.65862   16.69747
       H     9.40160  -13.81606   14.55397
       O     9.93416  -14.20119   15.26807
      H1     9.33265  -14.88038   15.61082
       H    15.26599  -18.27178   19.99500
       O    14.87157  -18.24786   19.10904
      H1    15.52181  -18.22649   18.40527
       H    13.03748  -17.95582   11.26758
       O    13.95999  -18.33835   11.26954
      H1    14.03713  -18.87081   10.48595
       H    14.40439  -16.68633   14.31940
       O    14.77142  -16.45331   15.17491
      H1    14.02033  -16.38857   15.79565
       H     6.93736  -19.82167   13.50628
       O     6.32348  -19.11683   13.32278
      H1     5.53978  -19.41566   13.81725
       H     8.58059  -14.52789    5.86247
       O     9.49273  -14.48068    6.23252
      H1    10.03535  -14.20518    5.50582
       H    12.95219  -13.36068   15.32271
       O    12.40646  -13.59216   16.08572
      H1    11.56715  -13.81356   15.64605
       H     4.65429  -15.28437   19.90628
       O     5.19974  -15.94478   19.44380
      H1     5.68263  -15.41869   18.77686
       H     5.66997  -13.22374   11.94497
       O     6.17608  -14.00717   11.93899
      H1     6.57671  -14.00287   11.03071
       H    11.04568  -15.51442   14.04147
       O    11.20840  -16.44378   13.78537
      H1    11.18017  -16.78648   14.67955
       H    13.82511  -13.30471    9.34036
       O    13.50022  -12.57320    8.82605
      H1    12.63712  -12.95021    8.56161
       H     3.82392  -19.64291    8.92344
       O     3.73288  -18.89513    9.57462
      H1     3.96643  -18.12405    9.05031
       H    10.84941  -12.96697   18.83414
       O    11.75838  -12.75452   18.66902
      H1    11.95370  -12.97517   17.74951
       H     6.90947  -17.61923    9.78140
       O     7.55207  -17.10950   10.23820
      H1     7.30091  -17.18111   11.14753
       H     3.84376  -16.50596    7.23233
       O     3.87701  -16.44266    8.24556
      H1     3.00262  -16.18464    8.61655
       H    10.16545  -11.74924   11.98763
       O    10.81956  -11.24339   12.54090
      H1    11.63070  -11.48130   12.04129
       H     7.71921  -16.49775   15.35583
       O     8.15415  -16.08687   16.12886
      H1     7.41554  -15.57680   16.45317
       H    10.01172  -17.82466    8.25721
       O     9.87401  -18.35605    9.06230
      H1     8.98461  -18.14438    9.38249
       H    16.95761  -17.66308   12.63241
       O    16.56700  -18.43179   12.22406
      H1    15.62456  -18.30780   12.08224
       H    14.70604  -13.27688   14.10003
       O    13.78487  -13.21910   13.83870
      H1    13.72022  -12.51108   13.27337
       H    17.02426  -18.30802    9.36738
       O    17.37360  -19.07565    9.83651
      H1    17.05611  -18.97766   10.79460
       H     8.03957  -12.01751   13.74769
       O     8.18351  -12.89643   13.51992
      H1     7.53631  -13.19530   12.90289
       H    13.07613  -16.08534   18.00854
       O    13.10075  -15.96375   17.03814
      H1    12.80613  -15.02146   16.81999
       H    14.42258  -15.56336   10.83710
       O    14.59596  -14.99472    9.98856
      H1    15.44722  -14.53088   10.15681
       H     2.24790  -17.81878   11.87911
       O     2.75590  -17.11789   11.47837
      H1     3.40792  -17.64667   10.94041
       H    13.75201  -19.88041    8.33005
       O    14.40937  -19.31075    8.72400
      H1    15.19165  -19.87679    8.67511
       H    12.14796  -16.86860   19.97354
       O    11.85060  -17.72404   19.55856
      H1    12.60919  -18.04435   19.15894
       H    15.50903  -13.96581   18.22349
       O    15.30577  -13.95266   17.31442
      H1    14.50653  -14.49072   17.12154
       H     4.87884  -17.36561   18.13097
       O     4.74769  -18.22003   17.64183
      H1     4.58886  -18.88187   18.29499
       H    10.49556  -18.23575   16.50796
       O    11.31535  -17.94829   16.06112
      H1    11.65252  -17.27640   16.65023
       H    14.31464  -11.88564   11.41212
       O    13.38613  -12.14955   11.45364
      H1    13.07301  -12.16360   10.55751
       H    13.14141  -16.02243    8.16158
       O    13.22663  -16.83693    7.72435
      H1    13.62442  -17.33031    8.44768
       H    12.53644  -15.71794   12.56194
       O    13.48474  -15.62486   12.60374
      H1    13.61556  -14.63310   12.75525
       H     5.06073  -11.61790   10.88021
       O     4.59577  -11.82927   11.70131
      H1     3.80485  -12.18773   11.33027
       H    11.24797  -17.91651    3.99459
       O    10.52133  -18.53186    4.11469
      H1    10.77525  -19.12430    4.82483
       H     9.59949  -18.37524   19.45902
       O     8.69816  -18.17620   19.62518
      H1     8.21110  -18.18494   18.76805
       H    14.29208  -18.39321    5.47372
       O    14.60215  -19.24096    5.84720
      H1    14.85324  -19.01472    6.75700
       H     2.45538  -15.06757   13.72033
       O     1.57419  -14.75087   13.94867
      H1     0.87071  -15.20394   13.37610
       H     6.48525  -14.69150    4.95228
       O     6.54644  -15.02635    5.82517
      H1     6.76557  -15.96320    5.88810
       H     1.91721  -16.10625   16.51854
       O     1.73663  -15.13077   16.55301
      H1     1.51664  -14.89224   15.59188
       H     1.87368  -14.76917    9.61765
       O     1.60567  -15.60802    9.27026
      H1     1.80472  -16.15589   10.05326
       H     4.63099  -12.86154   15.09833
       O     3.92500  -13.44562   15.39090
      H1     3.39012  -12.91384   16.01010
       H    17.03407  -14.15169   15.25871
       O    16.50771  -14.62783   14.63991
      H1    16.09606  -15.29837   15.22450
       H     8.52083  -17.83075    5.59912
       O     7.63500  -17.85359    6.00290
      H1     7.46042  -18.82865    6.17537
       H     6.41691  -13.48367   17.83567
       O     6.28744  -14.38463   17.46729
      H1     5.56902  -14.24884   16.80189
       H     6.56280  -14.62132    9.01906
       O     7.40634  -14.65548    9.46311
      H1     7.51214  -15.55343    9.80688
       H     5.14137  -17.19144   15.93770
       O     5.40758  -16.46767   15.34909
      H1     4.69827  -16.15613   14.76742
       H     2.75113  -17.81792   17.80262
       O     1.86578  -17.84424   17.35220
      H1     1.89562  -18.61666   16.81747
       H    16.97198  -15.98272    8.67459
       O    16.44546  -16.55996    8.11497
      H1    15.56350  -16.22021    8.30820
       H     1.26275  -19.70486   14.61410
       O     0.90040  -19.36070   15.45420
      H1     0.21723  -18.75423   15.15045
       H    10.18876  -16.13587    6.61091
       O    10.49211  -17.03182    6.60837
      H1    11.42106  -17.12826    6.73273
       H    15.76142  -17.40085   16.29189
       O    16.42440  -17.69473   16.92708
      H1    16.99719  -16.92320   17.07063
       H     4.61251  -14.92618   12.54969
       O     4.09729  -15.58742   13.05946
      H1     3.45859  -15.94447   12.45546
       H     5.65834  -14.69731    7.21547
       O     5.08180  -14.11352    7.74814
      H1     4.54393  -14.72743    8.26596
       H    10.22069  -12.72182    9.09721
       O    10.58408  -12.60107    8.21150
      H1     9.95351  -13.03304    7.66554
       H    10.08873  -19.51361   12.48891
       O     9.12981  -19.60782   12.44162
      H1     8.79410  -18.83711   12.96486

