180
frame 5 | Written by MDAnalysis XYZWriter (release 2.4.3)
       H     4.08770    7.65121  -12.94245
       O     4.86812    8.18171  -12.73878
      H1     4.51843    9.01812  -12.36958
       H    -9.67665   11.55562  -11.10981
       O    -9.25617   10.89060  -11.71190
      H1    -8.31031   10.97816  -11.56278
       H     1.77223    3.53338   -9.02787
       O     1.56890    4.52291   -8.97897
      H1     1.35673    4.76614   -9.84966
       H     2.73466   10.51963  -11.94575
       O     3.70987   10.45810  -11.88362
      H1     3.78308   10.67354  -10.91578
       H    -2.90867   12.87242   -7.43969
       O    -2.69878   11.96584   -7.69969
      H1    -1.81980   11.97753   -8.22807
       H    -3.70963    6.22861  -18.84808
       O    -3.45392    5.29271  -19.13317
      H1    -3.15966    4.92009  -18.30725
       H    -3.60620    5.21235  -13.08732
       O    -3.55473    4.77547  -13.92209
      H1    -4.39477    5.08446  -14.26879
       H    -2.82037    8.11464  -12.05761
       O    -1.81376    8.05251  -11.92497
      H1    -1.60303    8.81084  -11.44889
       H    -0.34661    8.70739   -7.98803
       O    -0.60517    8.35157   -7.11597
      H1    -0.51124    9.18733   -6.57984
       H    -5.93279    4.90104  -16.29739
       O    -6.14999    5.51389  -15.53922
      H1    -6.49933    4.99750  -14.79578
       H    -0.08517    5.40558  -11.75682
       O     0.79764    5.59266  -11.45473
      H1     1.22634    4.75274  -11.79062
       H    -3.10387    8.48975  -15.62969
       O    -3.94982    8.61419  -15.08784
      H1    -4.73786    8.51341  -15.65160
       H     1.27814    8.35741   -9.40669
       O     0.38754    8.56272   -9.73166
      H1     0.07341    7.69068   -9.95292
       H    -4.09646   15.05934  -12.28607
       O    -4.90763   14.53840  -12.56063
      H1    -4.82087   14.61894  -13.51616
       H    -2.64797    4.31053  -10.48998
       O    -2.94301    3.41593  -10.75317
      H1    -3.35162    3.07033   -9.95657
       H     0.68279    3.04057  -13.16432
       O     1.61802    3.37087  -13.11853
      H1     1.59355    4.01469  -13.84901
       H    -7.38730    8.85551  -11.33118
       O    -7.13002    9.03058  -10.41440
      H1    -7.11220    8.19610   -9.97141
       H    -1.26735    1.41325  -12.71574
       O    -0.84462    2.03377  -12.15139
      H1    -1.55862    2.50862  -11.73878
       H    -7.44626    7.53346   -7.52107
       O    -7.10423    7.21256   -8.36852
      H1    -6.37044    6.62963   -8.13272
       H    -6.33428   10.67940  -10.50380
       O    -5.76642   11.47645  -10.54759
      H1    -5.94943   11.71932  -11.49523
       H    -5.28942    9.66194  -17.63485
       O    -5.48505   10.59310  -17.35427
      H1    -6.36322   10.55737  -17.02786
       H    -8.19573    7.99814  -15.86921
       O    -7.31685    7.97346  -16.21654
      H1    -6.94804    7.10382  -15.93123
       H     1.73057   11.90023  -15.47906
       O     0.81945   12.15340  -15.20022
      H1     0.52334   12.59183  -16.03306
       H    -8.07801   10.65394  -15.41195
       O    -8.07593   10.98261  -16.35064
      H1    -8.69389   11.73978  -16.26806
       H     1.23797    9.21798  -12.23364
       O     0.98488   10.15979  -12.18137
      H1     0.65081   10.26617  -11.30202
       H    -7.04676    4.05893  -12.76629
       O    -7.35913    4.85070  -13.30097
      H1    -8.32487    4.78679  -13.31751
       H    -0.70328   12.39224   -9.99091
       O    -0.30573   12.08658   -9.17658
      H1     0.00549   12.87926   -8.65696
       H    -3.78293    2.41613  -15.71190
       O    -3.96183    2.11436  -14.80290
      H1    -3.84707    2.96419  -14.39083
       H     1.03750    8.45494  -15.51502
       O     1.93601    8.39627  -15.10300
      H1     2.08000    9.23795  -14.72773
       H     2.53927    4.66573  -15.63542
       O     2.57821    5.30311  -14.92807
      H1     3.08132    6.01883  -15.37535
       H    -4.55102    8.57286  -13.33703
       O    -4.46991    8.29126  -12.45017
      H1    -4.77188    9.09086  -11.92051
       H    -5.40446   13.24226   -9.86483
       O    -5.36738   14.05165   -9.33613
      H1    -5.32348   13.76578   -8.43571
       H    -4.39161   13.30847  -15.51028
       O    -4.98569   14.07379  -15.34296
      H1    -5.46713   14.14679  -16.15219
       H     0.54134   13.25503  -12.60081
       O     1.39552   13.69297  -12.87433
      H1     1.60832   13.33368  -13.75927
       H     2.97590    7.21801   -9.15477
       O     3.02201    8.11687   -9.44559
      H1     3.07072    8.02382  -10.43485
       H    -4.78128    4.54458   -8.86558
       O    -5.58356    5.09971   -9.03351
      H1    -5.43618    5.40660   -9.94683
       H    -0.42321   10.65127  -15.40459
       O    -0.83088    9.94018  -14.87536
      H1    -0.45846   10.16373  -13.97504
       H    -1.81108   12.25175  -11.74662
       O    -1.14029   12.89879  -11.83980
      H1    -1.68836   13.66768  -11.72851
       H    -3.86649   10.51441   -8.19513
       O    -3.91626    9.70164   -8.74977
      H1    -4.80412    9.44459   -8.64150
       H    -6.18507    5.76238  -12.12760
       O    -5.31920    5.90515  -11.74767
      H1    -5.16666    6.84439  -11.95931
       H    -0.19172    3.69327   -8.18095
       O    -1.01140    3.37525   -7.77352
      H1    -0.72812    3.34783   -6.83874
       H    -7.13404   12.81270  -13.38187
       O    -6.79461   11.93548  -13.14464
      H1    -5.86569   12.03380  -13.43799
       H    -3.44139   10.80341  -13.15279
       O    -4.17528   11.09658  -13.70878
      H1    -4.13793   10.37435  -14.30256
       H    -9.92173   10.51921   -9.14658
       O    -9.49776    9.72548   -8.82366
      H1    -8.80764    9.43117   -9.42439
       H     0.62872    6.39974   -4.86475
       O     0.98953    6.86655   -5.64840
      H1     0.15692    7.36470   -6.01033
       H    -0.57694    7.59733  -16.97808
       O    -1.24839    7.59844  -16.20197
      H1    -1.08069    8.52626  -15.88114
       H    -6.57705    3.49701   -8.84866
       O    -6.91692    2.58340   -8.76126
      H1    -7.89688    2.74728   -8.82719
       H    -3.89862   11.66531  -11.09123
       O    -3.04889   11.19601  -11.16411
      H1    -3.12708   10.65848  -10.38151
       H    -2.16408    7.44197   -7.24394
       O    -2.98792    7.25368   -7.75153
      H1    -3.38223    8.13413   -7.80593
       H     1.65418   10.04907  -17.96833
       O     0.82885    9.68874  -17.69862
      H1     0.25599   10.34254  -18.04565
       H    -1.77013    6.66732  -10.87899
       O    -1.90748    5.95175  -10.21242
      H1    -2.23082    6.47339   -9.47063
       H    -2.49379    4.17719   -7.53327
       O    -3.40967    4.44982   -7.28098
      H1    -3.23504    5.43831   -7.39049
       H     1.67851    6.81902  -12.09646
       O     2.21467    7.60919  -12.35178
      H1     2.14824    7.67211  -13.36808
       H    -5.72963    7.38951  -18.51251
       O    -4.90407    7.88776  -18.39511
      H1    -4.81636    8.42361  -19.28299
       H     0.75326    5.63787  -14.72186
       O    -0.21034    5.40127  -14.65121
      H1    -0.64485    6.18057  -15.11799
       H    -0.64607    3.52867  -15.43917
       O    -0.43724    2.85947  -16.06404
      H1    -1.20571    2.91119  -16.71077
       H    -4.96008    3.22387  -11.48682
       O    -5.73800    2.69637  -11.67560
      H1    -6.05878    2.43446  -10.83946
       H    -7.27856   10.61547   -6.84928
       O    -6.74485   10.93989   -7.55277
      H1    -7.24927   11.76984   -7.78541
       H    -2.57219    4.88013  -15.47443
       O    -2.48673    4.70150  -16.46805
      H1    -2.07247    5.56146  -16.66501
       H    -0.18372   11.32914   -6.85236
       O     0.05140   10.94904   -5.98772
      H1    -0.63469   11.32940   -5.39823

