180
frame 6 | Written by MDAnalysis XYZWriter (release 2.4.3)
       H   -17.41803   -2.38873    6.33759
       O   -17.05398   -1.59363    6.81851
      H1   -17.79437   -1.43615    7.45295
       H   -15.77079   -6.72485    1.60685
       O   -15.58133   -5.98359    2.16559
      H1   -14.97404   -6.45630    2.78308
       H   -18.26390    0.63241   11.04743
       O   -18.80227    1.21807   10.45256
      H1   -17.99108    1.72650   10.17986
       H   -16.21658    0.74759   11.71635
       O   -16.80869    0.10341   12.19218
      H1   -17.25628    0.71401   12.84576
       H   -13.26269    1.22035    3.66729
       O   -14.22307    1.42749    3.65952
      H1   -14.21342    2.38473    3.57609
       H   -11.26104   -2.07155    8.44609
       O   -11.43900   -2.47353    7.57305
      H1   -10.50719   -2.79102    7.41550
       H   -13.59854    3.19644    5.53076
       O   -13.62047    2.67813    6.35028
      H1   -13.27855    1.84284    5.98544
       H   -10.65667   -1.31610   11.01636
       O   -10.83180   -1.23702   10.05462
      H1   -11.67930   -0.82293   10.00390
       H   -13.12159   -3.31972    0.73972
       O   -12.14558   -3.29822    0.53155
      H1   -11.64587   -3.41533    1.33843
       H   -14.26820   -7.34154    4.99891
       O   -14.78979   -6.50849    4.87541
      H1   -15.32477   -6.50623    5.66659
       H   -19.97555    0.58475    6.04446
       O   -19.28485    1.25145    5.89540
      H1   -18.69169    1.21783    6.67806
       H   -16.97735   -3.47332    4.75545
       O   -17.92264   -3.48828    5.10179
      H1   -18.29073   -3.14504    4.30373
       H   -12.57374    3.57246   10.01701
       O   -11.61553    3.49473    9.71414
      H1   -11.55008    2.67702    9.19217
       H    -8.78574    3.39384    6.77257
       O    -8.33012    2.99144    7.48889
      H1    -8.83519    2.19368    7.64182
       H   -11.46964    0.94626    7.27827
       O   -10.77938    1.49640    7.73845
      H1   -10.88923    2.38353    7.26584
       H   -11.81837   -6.13098    7.90204
       O   -11.02356   -6.60447    8.30081
      H1   -10.36336   -5.99291    7.98517
       H   -19.36746   -5.79577    6.97806
       O   -19.22729   -6.71324    6.80256
      H1   -19.22889   -6.69725    5.81190
       H   -11.32377   -1.96175    3.71984
       O   -10.62484   -2.13852    4.36670
      H1   -10.42587   -3.03001    4.16762
       H   -11.44170    1.16131    0.29211
       O   -11.21239    0.64529    1.07343
      H1   -10.56929    0.02658    0.71342
       H   -19.16174   -3.64627    6.58346
       O   -19.05990   -3.77422    7.53005
      H1   -19.72206   -3.16583    8.01321
       H    -8.15468    2.40786    4.77475
       O    -8.96154    1.86347    4.83202
      H1    -8.67997    1.02263    5.14856
       H   -18.78942   -5.19703   10.12093
       O   -18.76534   -4.71188   10.96869
      H1   -18.68371   -5.44870   11.58440
       H   -11.35112   -5.75422   11.30547
       O   -10.96119   -6.63210   11.12159
      H1   -11.03356   -6.54753   10.13166
       H    -9.51947   -1.05799    3.38547
       O    -8.90296   -0.71929    2.67355
      H1    -8.82596   -1.46563    2.03976
       H   -18.30779    0.69350   -0.48571
       O   -18.27843    0.92689    0.44877
      H1   -17.43225    0.49371    0.66699
       H   -15.33229   -3.00209    2.06808
       O   -14.91744   -2.62317    1.28618
      H1   -15.33466   -1.76504    1.23450
       H   -13.07310   -0.38383    5.08092
       O   -12.87903   -0.09058    5.93708
      H1   -12.19284   -0.63834    6.33942
       H   -12.37053    4.67214    7.54192
       O   -13.03300    5.22106    7.95455
      H1   -13.29071    5.68826    7.04188
       H   -16.88103   -6.18040    7.51930
       O   -15.89272   -6.23115    7.53688
      H1   -15.69540   -5.35915    7.92123
       H   -15.25729    0.27793    0.22522
       O   -15.55086   -0.05099    1.12210
      H1   -14.87592    0.29445    1.70705
       H   -15.25413    2.26927    6.58431
       O   -16.22402    2.30395    6.45550
      H1   -16.40059    2.90689    7.19090
       H    -8.76591   -0.72953    9.45705
       O    -7.81876   -0.75608    9.68683
      H1    -7.52260    0.16582    9.79092
       H   -14.10205   -9.16455    7.30700
       O   -13.76995   -8.23513    7.41484
      H1   -14.68760   -7.81336    7.41534
       H   -11.15800    1.39038    2.72041
       O   -11.37212    2.11653    3.37136
      H1   -10.55525    1.95087    3.91013
       H   -18.25955   -5.41951    3.69102
       O   -18.27870   -5.38480    2.70541
      H1   -17.36060   -5.50246    2.52743
       H   -15.44902   -2.61393   13.33751
       O   -14.84762   -3.08835   12.82188
      H1   -14.58141   -3.87394   13.37090
       H   -18.75274    0.13891    4.50545
       O   -18.80177   -0.34598    3.63764
      H1   -17.87007   -0.69289    3.67414
       H   -12.04880   -4.10081    6.69418
       O   -12.07811   -4.85840    6.16702
      H1   -13.00632   -4.89347    5.90568
       H   -15.25204    4.32461    3.50934
       O   -14.35403    4.44258    3.81679
      H1   -14.04629    5.09866    3.21040
       H   -13.51037   -2.06432    2.87333
       O   -12.83661   -1.33456    3.02596
      H1   -12.88232   -0.83400    2.16397
       H    -8.89177   -4.92841    6.69015
       O    -9.12809   -4.60623    7.55248
      H1    -8.33212   -4.26716    7.96861
       H   -11.67327   -5.71787    3.30457
       O   -11.36921   -4.89861    3.64591
      H1   -11.55698   -5.01578    4.58747
       H   -18.36737   -1.35060   11.74567
       O   -19.11986   -1.93385   12.07671
      H1   -18.81363   -2.81381   11.84720
       H   -15.74585    0.85074    7.85529
       O   -15.42699    0.80569    8.75410
      H1   -14.66881    0.17678    8.72633
       H   -11.28274   -3.73500   11.00414
       O   -11.99551   -4.21621   11.46118
      H1   -11.70521   -4.10330   12.36975
       H   -18.71248    0.16773    9.05583
       O   -18.81614   -0.42662    8.26612
      H1   -19.25232   -1.18651    8.70222
       H   -13.47798   -0.97225    9.88297
       O   -13.28715   -0.69197    8.98783
      H1   -13.29899   -1.50566    8.49745
       H   -14.04556    3.90917    8.79008
       O   -14.62021    3.49122    9.43517
      H1   -14.78943    2.64936    9.00007
       H    -7.85209   -1.82741    4.53532
       O    -6.93895   -2.13992    4.55476
      H1    -6.46994   -1.79444    5.36348
       H   -14.82512   -3.87245    4.72682
       O   -14.93123   -3.82245    3.73731
      H1   -15.11509   -4.73176    3.59788
       H   -14.99957   -4.38096   11.59433
       O   -14.98510   -5.01513   10.81764
      H1   -14.14553   -4.61675   10.35997
       H    -9.57592   -5.72998    3.97438
       O    -8.90466   -5.84876    4.65033
      H1    -8.85270   -6.82852    4.80586
       H   -15.36986   -2.61826    6.80530
       O   -14.48308   -2.70237    6.47049
      H1   -14.35111   -1.75696    6.14166
       H   -17.21921    3.80948    8.93048
       O   -17.73758    3.00301    8.55524
      H1   -18.60232    3.40086    8.49941
       H    -7.81175   -0.53127    7.07176
       O    -8.67033   -0.29961    6.69094
      H1    -9.00059    0.39997    7.30110
       H   -16.53116   -4.13305    9.65581
       O   -16.51995   -3.77194    8.73281
      H1   -17.35678   -4.03956    8.31582
       H   -12.68684   -0.66743   12.21725
       O   -13.46459   -0.83376   11.58307
      H1   -13.66355   -1.72888   11.88097
       H   -15.47821   -6.59266   10.99135
       O   -15.91338   -7.44825   11.17076
      H1   -16.18763   -7.73125   10.30653
       H   -16.72519    3.52964    5.08422
       O   -17.15490    4.00937    4.36557
      H1   -18.09359    3.70596    4.58356
       H   -16.05166    0.24829    4.05753
       O   -16.20402   -0.63401    4.24086
      H1   -16.49486   -0.64572    5.15627

