180
frame 11 | Written by MDAnalysis XYZWriter (release 2.4.3)
       H    -4.60151    4.75042    6.23578
       O    -5.00723    5.26384    5.50155
      H1    -5.71100    5.74034    5.96989
       H    -4.41663    5.70304   12.34061
       O    -3.54405    6.01100   12.62558
      H1    -3.41234    6.69015   11.93448
       H    -3.40646   14.67028    8.21472
       O    -3.77734   15.17133    7.49437
      H1    -2.96240   15.31785    6.97319
       H    -4.60110    7.62114    0.83756
       O    -3.99849    7.21810    0.18541
      H1    -3.52557    6.56351    0.77133
       H     0.35621   10.32384    0.92257
       O     1.17188    9.89239    1.30000
      H1     1.73205    9.87727    0.50836
       H    -0.20441   10.60591   11.26721
       O     0.07761   11.24911   10.58226
      H1     0.85822   10.79992   10.15765
       H    -3.97261   11.86968   13.63231
       O    -3.30849   11.44449   13.06589
      H1    -2.80477   12.22302   12.73925
       H    -4.91111   15.08869    3.77275
       O    -5.09120   15.79802    4.38862
      H1    -5.92188   16.21467    4.17868
       H    -6.71664    9.18171    7.98052
       O    -5.94545    9.48100    7.53519
      H1    -5.84487   10.38033    7.87154
       H    -2.83849    8.38497    6.77408
       O    -2.83750    8.31925    5.80712
      H1    -2.60713    7.40797    5.66698
       H    -2.12076   11.42777    7.52211
       O    -2.24771   11.51530    8.44873
      H1    -1.31674   11.69010    8.73748
       H    -5.38305    5.70819    9.87669
       O    -4.78230    5.19316    9.32731
      H1    -4.34877    4.56878    9.92643
       H    -4.47091   13.70827    6.40360
       O    -4.63160   12.79858    6.06475
      H1    -5.39069   12.54873    6.59737
       H    -6.00118   17.32800    7.77307
       O    -5.87202   16.56974    8.42661
      H1    -5.18955   16.04741    7.90473
       H     3.89633    7.17398    3.02567
       O     3.47080    7.78542    3.67055
      H1     2.65892    8.12337    3.22885
       H    -3.08008   10.72959    1.16245
       O    -3.38327   11.24025    1.88566
      H1    -3.00135   10.74600    2.63799
       H    -0.07365   12.78697    4.32365
       O     0.15684   12.48988    5.21278
      H1    -0.64537   12.07570    5.48244
       H    -3.61226   14.40255    1.99582
       O    -4.48139   14.56119    1.51331
      H1    -5.16757   14.00003    1.86565
       H    -8.36527   11.38821    1.08043
       O    -7.49697   11.26303    0.63019
      H1    -6.96186   10.71457    1.28366
       H    -8.05400    6.14132    5.89591
       O    -7.36144    6.77759    5.87579
      H1    -7.29985    7.06305    4.96175
       H    -4.43804    8.62197    4.76041
       O    -5.37277    8.89431    4.71921
      H1    -5.58498    9.11896    5.65254
       H    -4.90651    9.92172    1.71549
       O    -5.30444    9.08025    1.43822
      H1    -5.27271    8.64552    2.28251
       H    -1.04199    7.77831   -0.90212
       O    -1.58161    8.24681   -0.24374
      H1    -2.44671    7.77570   -0.29523
       H     0.99375   12.74950   -0.71597
       O     0.15826   12.69410   -0.22743
      H1     0.32324   13.32856    0.51095
       H    -3.74325   12.37013   -0.23610
       O    -4.12116   13.10179   -0.68567
      H1    -4.05632   13.81572   -0.06992
       H    -1.54393    5.45539    1.46974
       O    -2.53297    5.46475    1.64977
      H1    -2.53841    5.87400    2.50881
       H    -1.73807   14.22149    4.92250
       O    -1.52942   14.68789    5.78583
      H1    -0.61598   14.47655    6.01469
       H     1.14158    9.46173    8.18333
       O     1.36588   10.36026    7.93546
      H1     1.56109   10.27859    7.03834
       H    -7.37917    9.98773    4.05827
       O    -8.05526    9.62169    3.51284
      H1    -7.62848    9.05513    2.84915
       H    -1.62596    9.30673   12.71638
       O    -0.75384    9.63880   12.81553
      H1    -0.37967    8.89891   12.35876
       H     5.30349    9.20493    8.12513
       O     4.77042    9.96631    8.02845
      H1     4.21566    9.71408    7.32776
       H    -7.37619    6.23836    2.48669
       O    -6.55886    6.59781    2.80637
      H1    -6.09519    5.82406    3.14861
       H    -3.56160   17.17746    4.36723
       O    -2.71726   17.60281    4.43414
      H1    -2.98179   18.40860    3.90422
       H     2.18396   12.22821    8.64997
       O     3.01257   12.73080    8.52159
      H1     2.79212   13.61688    8.94555
       H     0.65088    9.05462    2.84018
       O     0.55771    9.05478    3.81310
      H1     0.10997    8.22015    3.93036
       H    -7.09973   13.18630    7.94289
       O    -6.74589   12.29696    8.00324
      H1    -6.29257   12.32624    8.89922
       H    -4.06857    8.82187   11.25494
       O    -3.23304    8.34851   11.01800
      H1    -3.08876    8.50478   10.08878
       H    -4.57551   11.19269   11.48877
       O    -5.05620   11.46935   10.70995
      H1    -5.21168   12.39319   10.90257
       H    -2.95375   12.97570    9.39285
       O    -3.13887   13.82796    9.74512
      H1    -2.83439   13.90786   10.65689
       H    -2.14784    5.16640    4.78109
       O    -2.60028    5.92407    4.41959
      H1    -3.47244    5.75893    4.80948
       H    -5.41524   12.95078    4.45944
       O    -5.87523   13.07934    3.59041
      H1    -6.48669   13.81287    3.82864
       H    -7.74373    7.38975    7.33405
       O    -8.07822    7.85959    8.09759
      H1    -8.32515    7.12586    8.68939
       H     0.35630    5.11965    3.04084
       O     0.50252    5.86570    2.40334
      H1     1.37065    5.61642    2.11572
       H     0.48274    3.36805    4.16289
       O    -0.35138    3.63190    4.67958
      H1     0.08652    4.23537    5.28012
       H     1.47090   14.12408   11.57758
       O     0.53732   14.10607   11.66771
      H1     0.32149   13.31033   11.24606
       H     4.35541   10.66908    5.34755
       O     5.31633   10.76903    5.22268
      H1     5.46677    9.95752    4.77865
       H    -1.78753   10.04611   -0.58462
       O    -2.16164   10.95516   -0.64857
      H1    -1.34224   11.42501   -0.51456
       H    -0.04491    6.89420    9.09453
       O     0.66751    7.53566    8.77463
      H1     1.48023    6.96311    8.79148
       H    -0.45547   16.26730    9.57776
       O     0.17911   16.91893    9.45122
      H1     0.33277   16.92445    8.46255
       H    -7.15502   15.38533    8.16372
       O    -7.76179   14.69711    8.06085
      H1    -8.40317   14.75652    8.80008
       H     0.08885   17.05183    6.43911
       O     0.94576   17.51842    6.53648
      H1     0.71002   18.38831    6.27874
       H    -2.83994    9.87754    8.52634
       O    -3.24131    8.94267    8.54068
      H1    -4.20511    9.03648    8.62126
       H    -2.88934   12.85898    3.16433
       O    -2.50583   13.73534    3.32013
      H1    -1.58472   13.59117    2.99955
       H    -1.87923    5.22598   10.00288
       O    -1.29638    5.98701    9.85343
      H1    -1.31916    6.42250   10.74513
       H     1.53442    6.04790    6.21229
       O     0.56437    6.16463    6.40145
      H1     0.62366    6.76182    7.12819
       H     1.79071   10.08693    4.54277
       O     2.24606   10.65618    5.23264
      H1     1.49578   11.32508    5.24043
       H    -3.15954   11.74560    5.69069
       O    -2.25722   11.30996    5.69133
      H1    -2.50678   10.45110    5.95763
       H     0.36012   15.03685    2.93346
       O     0.27304   14.06360    2.73452
      H1     1.15602   13.78480    2.52448
       H     1.01156    7.00978   11.93413
       O     0.20481    7.49257   11.47076
      H1     0.62392    7.82292   10.65655
       H    -0.94541   17.06819    2.43894
       O    -0.44980   16.72554    3.13969
      H1    -1.08217   16.92583    3.86214

