180
frame 5 | Written by MDAnalysis XYZWriter (release 2.4.3)
       H    -3.60285   -5.95172    5.46021
       O    -4.06937   -5.07701    5.37445
      H1    -4.93287   -5.23095    5.82663
       H    -8.13889  -11.05094    8.25048
       O    -9.02869  -11.27211    8.49010
      H1    -9.17297  -10.78851    9.33540
       H    -9.18925  -10.73010   11.67803
       O    -9.75138  -10.35674   10.95278
      H1   -10.10559   -9.65697   11.49325
       H   -14.41800  -10.17610   10.24172
       O   -13.65814   -9.95199    9.70718
      H1   -14.05145   -9.23558    9.22436
       H   -10.43481   -1.76505    8.16057
       O   -10.38349   -1.94646    7.20165
      H1   -10.09936   -2.92467    7.25740
       H    -7.77116   -8.34216   11.91751
       O    -7.28038   -7.76358   11.30027
      H1    -7.64266   -8.07236   10.41799
       H    -8.83129   -9.00466    1.39578
       O    -9.21677   -9.48325    2.13941
      H1    -9.18323   -8.83615    2.79838
       H    -7.86573  -10.33181    3.35074
       O    -7.07052  -10.86798    3.56797
      H1    -6.89833  -10.73390    4.53438
       H   -12.69984  -10.89200   13.51330
       O   -13.28952  -10.23539   13.92808
      H1   -13.96863  -10.89607   14.35702
       H   -10.15920   -1.14946   10.66441
       O   -10.69008   -1.80083   10.17384
      H1   -11.54930   -1.38737   10.05192
       H    -7.94244   -9.27892   14.30739
       O    -8.26373   -8.59991   13.67803
      H1    -9.18865   -8.77901   13.74954
       H   -13.30268   -6.79026    4.40274
       O   -13.78668   -5.94660    4.21452
      H1   -14.50641   -6.04803    4.87046
       H    -6.76584   -7.06344    6.26070
       O    -6.90083   -7.98460    5.95794
      H1    -7.31896   -8.22474    6.82510
       H   -11.19859    0.18371    8.21336
       O   -10.90013    1.03725    7.87960
      H1   -11.49779    1.26519    7.08796
       H    -7.90541   -7.38015   15.31481
       O    -8.00704   -6.43428   15.43924
      H1    -8.65138   -6.28131   14.80351
       H   -11.36834   -6.71042    7.55481
       O   -10.80979   -6.61150    8.30661
      H1   -10.41340   -5.71861    8.07416
       H    -9.30023   -8.76718    5.51559
       O    -9.61457   -8.33842    4.73362
      H1   -10.56150   -8.38044    4.70774
       H    -3.69080   -7.69580   10.89140
       O    -4.35275   -8.11303   10.34141
      H1    -5.15431   -8.19964   10.95630
       H   -11.72352   -2.04917    3.61150
       O   -10.96657   -2.46634    4.01572
      H1   -11.14521   -3.40631    3.79174
       H   -12.44851  -11.33657    9.76354
       O   -12.16911  -12.21295   10.13639
      H1   -13.02917  -12.60592   10.32187
       H   -11.44202   -5.49873   11.23620
       O   -11.49377   -6.45222   11.17452
      H1   -11.46484   -6.63833   10.22276
       H   -12.93136   -1.05498    4.95190
       O   -12.60521   -0.75592    5.84274
      H1   -11.90702   -1.40369    5.85765
       H    -6.34284   -5.02164   12.11865
       O    -6.20969   -5.22692   11.17988
      H1    -6.57830   -6.15440   11.25202
       H   -16.25427   -9.56648    6.49989
       O   -15.34325   -9.26863    6.22516
      H1   -15.13356  -10.11322    5.78112
       H   -16.79383   -6.54161    7.42157
       O   -15.96533   -6.04434    7.24448
      H1   -16.26430   -5.28864    7.77357
       H   -11.85841   -7.74973   14.58948
       O   -12.47984   -7.23269   15.09704
      H1   -11.79064   -6.76686   15.58421
       H   -10.00864  -10.93236    3.32896
       O   -10.54233  -11.75883    3.47172
      H1   -10.14034  -12.03601    4.33519
       H   -11.82622  -13.20479   13.04523
       O   -12.06645  -12.31781   12.87090
      H1   -12.10299  -12.23057   11.89589
       H    -8.81259   -1.04274    9.55272
       O    -8.11460   -0.92010    8.93048
      H1    -7.58172   -0.21570    9.34024
       H   -14.37984   -7.81735    6.67686
       O   -13.46424   -7.50049    6.94274
      H1   -13.68543   -6.58477    7.14868
       H    -6.39128   -5.08451    2.28269
       O    -7.32391   -5.25282    2.06694
      H1    -7.75263   -5.16051    2.98595
       H   -15.07114   -2.98712   12.76571
       O   -14.70408   -2.94641   11.89571
      H1   -13.90773   -3.48176   12.01138
       H    -8.34575   -2.89868   12.46237
       O    -8.33624   -3.77507   12.09356
      H1    -7.47760   -3.77595   11.64150
       H   -13.17125   -5.53378   14.04702
       O   -14.01054   -5.07466   13.84073
      H1   -14.62810   -5.70042   14.32225
       H   -11.83453   -8.07172   12.60551
       O   -11.35595   -8.86472   12.91010
      H1   -12.10568   -9.38808   13.22469
       H   -12.93507  -11.58124    5.69845
       O   -13.29767  -12.47358    5.49675
      H1   -12.64511  -12.99328    5.06128
       H    -9.71867  -13.34630    7.55705
       O   -10.06413  -13.55920    6.68534
      H1    -9.24608  -13.47732    6.17209
       H   -10.89451   -8.17242    1.30793
       O   -11.23557   -7.28306    1.29747
      H1   -11.67582   -7.16178    0.44255
       H   -13.19088   -4.09882    6.54404
       O   -12.51339   -4.71033    6.74814
      H1   -12.68479   -5.36645    6.06413
       H    -8.98392   -8.97659    9.37641
       O    -8.51129   -8.20125    8.97186
      H1    -9.17548   -7.49351    9.00326
       H    -8.83550   -4.70518    6.48586
       O    -9.18152   -4.41691    7.36967
      H1    -8.31416   -4.21655    7.70858
       H   -11.34889   -6.10479    2.63852
       O   -11.29763   -5.29824    3.21818
      H1   -12.17710   -5.35929    3.62208
       H    -7.21295   -2.55950    8.55030
       O    -6.89844   -3.52698    8.58296
      H1    -7.01006   -3.78933    9.52613
       H   -17.91973   -8.74960    3.93552
       O   -16.97180   -8.79694    3.58554
      H1   -16.38108   -8.44868    4.25486
       H   -11.41237   -3.25236   11.17037
       O   -11.88439   -3.78697   11.81180
      H1   -11.09042   -3.87500   12.43307
       H   -13.58209   -1.20706   10.11769
       O   -13.28639   -1.29141    9.20032
      H1   -13.83512   -2.03133    8.90703
       H    -5.61152   -6.00708    7.53909
       O    -6.25966   -5.61509    6.96510
      H1    -6.60135   -4.85905    7.52598
       H    -5.46956  -10.81780    6.57145
       O    -6.34828  -10.55830    6.25373
      H1    -6.22795   -9.58793    6.14707
       H   -12.61869   -9.04358    4.94006
       O   -12.45708   -8.52985    4.15176
      H1   -13.15836   -8.94481    3.60680
       H   -10.09473  -12.87725   10.30604
       O    -9.55677  -13.53103   10.79059
      H1    -8.66199  -13.22520   10.50951
       H   -14.94390   -3.27398    4.52923
       O   -15.24205   -3.43735    3.62280
      H1   -14.67681   -4.18655    3.37877
       H   -12.32994   -9.91400    7.29572
       O   -11.95989  -10.40105    6.55636
      H1   -11.46297  -11.08711    6.96767
       H   -14.93946   -4.65633   10.86987
       O   -14.65005   -5.42380   10.36799
      H1   -13.94511   -5.76762   10.82978
       H    -9.68144   -5.38571    4.13143
       O    -8.69693   -5.52601    4.30140
      H1    -8.73323   -6.46117    4.47371
       H   -15.01185   -2.28562    6.44026
       O   -14.23845   -2.77290    6.20559
      H1   -13.57229   -2.01717    6.25920
       H    -4.06641   -6.98792    9.04566
       O    -4.07023   -6.20335    8.45139
      H1    -4.36282   -5.55973    9.14030
       H    -9.14979    0.40383    6.08397
       O    -8.95552   -0.42074    5.64322
      H1    -9.36652   -1.06506    6.20095
       H   -15.24933   -3.95219    9.04927
       O   -16.09484   -3.69019    8.61221
      H1   -16.64705   -3.61263    9.41561
       H    -9.20843   -5.25369   12.94560
       O    -9.87833   -5.70223   13.44033
      H1   -10.38145   -6.10781   12.72626
       H   -15.63171   -7.08272   10.18249
       O   -16.09112   -7.82309   10.56824
      H1   -16.44978   -8.32025    9.82154

