180
frame 1 | Written by MDAnalysis XYZWriter (release 2.4.3)
       H    15.72931   -0.38554   11.21158
       O    16.22025    0.10747   10.52896
      H1    16.66504   -0.64486   10.08708
       H    18.27696   -9.25521   16.08918
       O    19.17420   -9.20011   16.39405
      H1    19.60498   -9.42749   15.50907
       H    17.71397  -13.20666    7.19175
       O    16.86195  -13.58578    7.44467
      H1    16.57637  -14.05392    6.65246
       H    18.66904  -14.20278   11.69168
       O    18.38997  -13.32028   11.38857
      H1    18.30715  -12.73952   12.14353
       H    18.00324   -9.65379   11.02761
       O    18.80754   -9.28434   11.42661
      H1    18.99264   -8.63655   10.73076
       H    14.24958  -13.55189   12.38365
       O    14.39512  -14.38299   11.89489
      H1    14.89224  -14.07635   11.10757
       H    16.04686   -7.82478   18.88741
       O    15.36796   -7.46237   18.21663
      H1    15.92497   -7.01284   17.56804
       H    17.23369  -13.17331   17.84223
       O    17.59855  -13.47899   18.72442
      H1    17.86876  -12.73341   19.35655
       H    12.79448  -11.16781   10.80787
       O    12.50858  -11.98908   11.20812
      H1    11.58687  -12.10066   10.91280
       H    13.61155   -5.92853    4.78844
       O    13.00726   -6.24403    5.50677
      H1    12.13843   -6.20919    5.05443
       H    13.43578  -11.94895   12.60327
       O    14.31706  -11.94292   13.05113
      H1    14.06519  -12.07181   13.92267
       H    10.85742   -6.41800   11.69791
       O    10.93430   -6.04776   12.59931
      H1    10.12801   -5.53212   12.62439
       H    13.08902  -12.90530    9.89604
       O    13.29068  -13.41205    9.10957
      H1    14.22924  -13.46864    9.07814
       H    15.33668   -5.92484    7.16605
       O    15.27256   -5.22430    7.81516
      H1    14.25943   -5.26976    7.93346
       H    18.37548   -7.05464   18.51067
       O    18.11563   -7.06293   19.44034
      H1    17.59533   -6.31100   19.70603
       H    12.62334  -13.47342   14.97074
       O    13.49357  -13.43963   15.36489
      H1    13.38654  -13.66427   16.30414
       H    15.50225   -5.03619   12.45403
       O    15.72509   -4.84648   11.55588
      H1    16.21861   -4.03437   11.54029
       H    17.69184   -6.74942   13.00350
       O    17.17990   -7.21483   13.70007
      H1    16.51722   -7.53426   13.10686
       H    14.78869   -2.63041   12.21941
       O    14.45609   -2.38850   11.36391
      H1    14.37211   -3.28001   10.94968
       H    17.93864  -10.49954    8.08604
       O    17.60435   -9.94679    7.35358
      H1    16.66481  -10.07629    7.35309
       H    17.61690    0.44921   11.55445
       O    18.33129    0.47642   12.33850
      H1    18.71124   -0.39892   12.23825
       H    17.09729  -11.30291   13.36541
       O    17.99074  -11.55860   13.70717
      H1    18.46064  -10.73063   13.70843
       H    15.75844   -8.15376    5.89740
       O    16.21784   -7.28155    5.90199
      H1    16.88919   -7.54507    5.21529
       H    17.14469   -5.10081    8.27955
       O    18.11033   -5.17196    8.03352
      H1    18.08768   -5.56621    7.12342
       H    18.67141  -12.37272    9.89458
       O    19.07311  -11.77111    9.19340
      H1    19.45908  -11.06841    9.76233
       H    17.62217  -17.06337    8.59125
       O    17.01082  -17.83711    8.66796
      H1    16.21363  -17.37023    8.40366
       H    19.15153   -9.83652    3.79653
       O    19.75828   -9.53630    3.10822
      H1    19.08006   -8.97017    2.71005
       H    12.68155  -15.17122    9.35128
       O    12.51567  -16.03142    9.75535
      H1    13.26002  -16.13304   10.34242
       H    11.88142   -8.37217    7.53105
       O    11.91358   -8.47075    6.56841
      H1    12.41780   -7.66830    6.31628
       H    16.95564   -6.41730   15.45160
       O    16.69822   -5.84707   16.22918
      H1    17.56359   -6.00488   16.71785
       H    15.63347  -14.38676   13.37059
       O    16.05768  -14.73521   14.15683
      H1    15.93143  -14.18780   14.94509
       H    15.72512   -8.69455   16.78992
       O    16.31390   -9.00108   16.10869
      H1    15.85940   -8.70082   15.33696
       H    14.68573  -15.84484    7.47924
       O    14.79736  -16.09539    8.43050
      H1    13.83495  -16.30511    8.64716
       H    11.04242   -7.35450   13.62091
       O    11.03120   -8.28106   13.99847
      H1    10.09393   -8.30366   14.39130
       H    15.06321   -1.59144   14.96918
       O    15.98532   -1.88192   14.89442
      H1    16.31007   -1.75986   15.83479
       H    15.41958   -6.71892    9.05428
       O    15.65615   -7.61432    9.13067
      H1    16.28685   -7.72003    8.44408
       H    18.53559  -16.96114   12.59807
       O    19.11558  -16.31852   12.08421
      H1    19.41526  -16.95225   11.39654
       H    19.55530   -0.75589    9.70979
       O    18.68385   -1.17038    9.60483
      H1    18.83991   -1.98617    9.08632
       H    17.22754   -7.34648    2.95174
       O    17.73189   -7.32424    3.76051
      H1    18.39008   -6.69981    3.72055
       H    19.44410  -10.15218   18.02648
       O    19.48560  -10.87540   18.66099
      H1    19.19714  -10.27459   19.41712
       H    17.24805   -5.54759   11.38746
       O    18.16763   -5.87264   11.40172
      H1    18.11958   -6.33014   10.54613
       H    16.34913  -11.41955   10.53398
       O    16.51815  -10.61869   11.05268
      H1    15.63975  -10.29020   11.35602
       H    11.28426   -6.09177    9.26461
       O    11.09726   -6.93662    9.72700
      H1    10.12153   -7.11210    9.68513
       H     9.86749   -9.23336   12.52660
       O     9.15679   -9.23104   11.88647
      H1     9.02371  -10.19658   11.72609
       H    17.46468  -12.41942   15.42525
       O    16.80192  -12.52154   16.14935
      H1    16.46700  -11.56487   16.25396
       H    12.74019  -13.87268    7.47413
       O    12.66056  -14.50407    6.73633
      H1    11.84154  -14.16627    6.30628
       H    14.14572   -9.56822   10.09439
       O    14.06659   -9.16666   10.96692
      H1    14.47056   -8.25864   10.81032
       H    13.55161   -8.34430   14.82491
       O    14.27677   -7.73762   15.09156
      H1    13.79902   -7.25561   15.79604
       H    18.41236   -2.70497   12.71281
       O    17.42401   -2.81235   12.67469
      H1    17.06972   -2.49926   13.50537
       H    11.62938   -4.23326    7.84972
       O    12.26398   -4.98171    7.74742
      H1    12.37161   -4.88013    6.79463
       H    16.27614  -13.47312    9.12455
       O    15.95577  -13.18285    9.99051
      H1    16.69166  -13.33225   10.62761
       H    18.13593  -11.35042    5.69001
       O    17.76473  -11.36499    4.82662
      H1    17.31446  -12.21502    4.83849
       H    17.06254  -16.50295   14.18204
       O    17.27993  -17.39026   13.95154
      H1    16.95060  -17.77394   14.80467
       H    14.84523   -9.71313    4.33151
       O    15.46805   -9.67102    5.05164
      H1    16.16142  -10.30329    4.87019
       H    14.89986   -4.62775    4.64444
       O    14.94278   -5.30511    3.93815
      H1    15.62097   -5.95359    4.23418
       H    16.90012  -16.20061    5.19877
       O    17.88395  -16.11433    5.07437
      H1    18.19905  -16.17346    6.03084
       H    17.88112   -3.89364   16.36096
       O    18.16018   -3.09926   16.76861
      H1    17.52602   -2.91355   17.51064
       H    17.04288  -14.46275    4.40799
       O    16.35380  -13.80347    4.49138
      H1    15.59920  -14.13168    3.97094
       H    13.45809   -9.91536    7.88042
       O    14.23155  -10.03856    8.43606
      H1    14.54503   -9.15647    8.47819
       H    14.96413   -2.69749    5.60978
       O    14.34482   -3.46400    5.48380
      H1    14.48296   -3.98094    6.32728

