180
frame 10 | Written by MDAnalysis XYZWriter (release 2.4.3)
       H   -13.48425    8.32480   15.46151
       O   -13.10657    7.65807   16.09019
      H1   -13.14726    8.06092   16.99763
       H   -16.04413    7.40797    9.87775
       O   -16.56009    7.91007   10.56672
      H1   -16.55944    8.84309   10.32140
       H   -17.30678    2.24793    9.52981
       O   -18.10494    2.51414    9.08689
      H1   -18.30472    3.42281    9.41605
       H   -11.50027    7.26508   14.84068
       O   -11.12364    7.03170   13.98633
      H1   -10.15698    7.04897   14.14664
       H   -13.73772    7.82613   11.39190
       O   -14.43030    7.41360   11.93793
      H1   -15.26146    7.57824   11.46368
       H   -15.52282    1.12570   10.04610
       O   -15.88136    1.76135   10.67243
      H1   -15.06368    2.20175   10.88132
       H   -12.54764   10.34177   14.10247
       O   -11.77895   10.80522   13.72630
      H1   -11.23130   10.88477   14.54456
       H   -12.48669    4.20336   14.28034
       O   -11.50880    4.21890   14.36437
      H1   -11.29647    5.13927   14.23558
       H   -16.95378   11.80690    7.74814
       O   -17.89983   11.68444    7.45335
      H1   -18.16915   12.63916    7.38271
       H   -12.71786    4.48488    5.61536
       O   -13.49629    3.94484    5.61295
      H1   -13.77588    3.99300    4.70609
       H   -15.01321    9.57055   14.10829
       O   -14.11950    9.34113   14.19629
      H1   -14.04606    8.68533   13.49208
       H    -9.13109    9.80288    9.53326
       O    -8.48490    9.61897   10.32507
      H1    -9.16843    9.46812   10.96194
       H   -13.68126    3.28307   15.72895
       O   -14.48448    3.77969   15.41071
      H1   -14.45057    4.54149   15.95555
       H   -18.60826    4.18613   16.06153
       O   -17.68215    4.19582   15.70388
      H1   -17.48438    5.09510   16.01381
       H    -8.89278    5.55678    9.17641
       O    -8.62922    6.14298    9.96316
      H1    -9.37789    5.98688   10.54306
       H   -19.89071    9.91629    9.00571
       O   -19.49637   10.70601    9.38335
      H1   -18.86747   10.95022    8.68924
       H   -11.07278   13.90196    7.98553
       O   -10.40822   14.04402    8.68845
      H1   -10.58298   13.34673    9.35546
       H    -9.72808   13.02029   13.52124
       O    -9.82827   13.56957   14.27678
      H1    -9.51189   13.04713   15.00749
       H   -10.40188    2.44184   11.77446
       O   -10.11921    2.86628   11.00146
      H1   -10.92073    2.98873   10.48144
       H    -9.68756    4.63762    6.88362
       O    -8.96508    4.33687    7.43734
      H1    -9.26186    3.52396    7.89527
       H    -7.81006    7.08758   13.34696
       O    -8.37463    7.36353   14.08092
      H1    -7.89153    6.87511   14.76708
       H   -17.20543   10.60763   14.10511
       O   -16.83795    9.86543   14.60853
      H1   -17.58919    9.27202   14.55432
       H   -10.85869   10.68690    8.15066
       O   -10.77956    9.77576    8.42907
      H1   -10.59014    9.19954    7.69704
       H   -12.49213    1.10744    7.20404
       O   -12.41886    2.03444    7.49386
      H1   -12.84291    2.47304    6.71363
       H    -9.47495   10.72517   16.35561
       O    -9.49668   10.46532   15.43842
      H1    -9.08748    9.59826   15.55673
       H   -15.59359    7.02660    5.37748
       O   -15.55426    7.88525    5.99988
      H1   -15.92274    8.45118    5.31203
       H   -11.55666    8.10807   10.54081
       O   -12.26196    8.14834    9.90069
      H1   -11.73157    8.78959    9.38119
       H   -18.03477   10.42901   10.57623
       O   -17.04448   10.58736   10.64392
      H1   -16.91264   11.38963   10.08665
       H   -17.44092    7.44196    6.94290
       O   -17.95313    6.68772    7.41623
      H1   -18.19890    6.11048    6.68816
       H   -17.43176    4.34849   12.73252
       O   -18.39950    4.60822   12.94026
      H1   -18.24184    4.73056   13.91124
       H   -11.43115    6.00241   12.40704
       O   -11.19674    5.92049   11.44249
      H1   -11.60770    5.10963   11.14058
       H    -8.31712   10.76206   12.18525
       O    -8.25244   11.72462   12.34456
      H1    -8.03860   12.15045   11.52838
       H   -12.64550    7.04968    8.57723
       O   -13.06241    6.48368    7.82775
      H1   -12.88570    6.97250    6.99639
       H   -11.57324   12.32182   11.79474
       O   -11.77113   12.86838   11.00544
      H1   -12.34907   12.21802   10.49966
       H   -18.64912    7.48679   14.30369
       O   -18.04116    7.15734   14.99137
      H1   -17.27506    6.91933   14.51978
       H   -13.24330    3.49790   10.33288
       O   -13.41115    3.04381   11.18748
      H1   -13.92391    3.70032   11.70851
       H   -14.49271    3.76320    7.00833
       O   -15.27964    3.56917    7.58380
      H1   -15.24473    4.42649    8.08668
       H   -12.76625   14.87939   11.09263
       O   -12.65788   15.83445   10.85930
      H1   -12.73778   16.32260   11.70439
       H    -7.55004    6.83056    7.03258
       O    -7.97046    7.59167    7.50410
      H1    -8.22615    7.30350    8.41690
       H   -13.86036   11.28763    6.77322
       O   -14.31853   10.67238    7.38133
      H1   -14.62731    9.96828    6.79228
       H   -15.14095    5.59101   12.58503
       O   -15.17630    4.62615   12.66587
      H1   -14.95676    4.39601   13.59770
       H   -16.11753    6.23520    8.11399
       O   -15.48212    6.03844    8.81163
      H1   -14.61838    6.27493    8.36595
       H   -17.23884   11.66948   12.34583
       O   -17.79196   11.97106   13.09737
      H1   -18.73598   11.90622   12.83296
       H   -14.98887    5.75529   17.58046
       O   -15.23853    6.09764   16.71932
      H1   -14.48840    6.65957   16.57224
       H   -10.46931    4.80816    4.70091
       O   -10.86347    5.03438    5.58559
      H1   -10.62005    5.99518    5.69738
       H   -12.52956    4.95400    8.45038
       O   -11.97635    4.25752    8.95140
      H1   -11.97971    3.51144    8.31330
       H   -17.10371   13.16716   10.31873
       O   -16.33813   13.03202    9.77963
      H1   -15.62305   12.98738   10.44739
       H    -6.70430    7.73194   11.16526
       O    -6.69121    6.92557   11.68017
      H1    -7.42692    6.42948   11.29418
       H   -11.93126    1.78179   12.23200
       O   -11.37964    1.67440   13.09322
      H1   -11.51357    2.63158   13.41198
       H   -12.60461    8.49888    4.84778
       O   -12.97982    7.61452    5.12531
      H1   -13.82275    7.95198    5.42624
       H   -10.39921    8.35120    5.70199
       O   -10.48643    7.85201    6.52331
      H1    -9.56124    7.68274    6.81345
       H   -18.20077    7.08498   10.76561
       O   -19.09184    6.75789   10.95377
      H1   -18.88858    6.08279   11.63790
       H   -19.58352    5.34310    9.73303
       O   -19.24321    4.80639    9.00412
      H1   -18.48090    5.43503    8.73460
       H   -15.68401   14.12644   14.77993
       O   -15.74372   14.23114   13.84319
      H1   -16.54476   13.71048   13.65300
       H   -10.76151    8.45735   12.69094
       O   -10.33647    9.13848   12.13803
      H1   -10.81315    9.84956   12.63651
       H   -13.19043   14.02015    7.04024
       O   -12.59121   13.22854    7.24171
      H1   -12.26776   13.02644    6.35225
       H   -13.01103    9.93569    9.83689
       O   -13.03608   10.87349    9.85163
      H1   -13.37214   11.00934    8.93369
       H   -13.36556   13.30944   11.67640
       O   -14.27508   13.61040   11.70389
      H1   -14.48080   13.89316   12.58502
       H   -19.07728    8.19697   12.08172
       O   -19.17186    8.78565   12.85200
      H1   -18.81208    9.61726   12.50429
       H   -17.03046   10.37098   16.21677
       O   -17.32206   10.83140   17.03175
      H1   -16.65441   10.54862   17.68409

