180
frame 12 | Written by MDAnalysis XYZWriter (release 2.4.3)
       H    -6.50618    9.83603  -18.50168
       O    -7.43252    9.92071  -18.37527
      H1    -7.75062   10.81463  -18.69849
       H     1.96443   15.55451  -10.77305
       O     0.97499   15.29534  -10.94654
      H1     0.48108   16.14413  -10.80122
       H     2.74724   15.23775  -15.10544
       O     3.54405   14.66909  -14.91699
      H1     4.05960   14.53441  -15.70650
       H     4.21411   18.61270  -15.02399
       O     4.04414   17.69478  -14.90619
      H1     3.74490   17.29624  -15.73523
       H   -13.20769   18.42961  -19.32747
       O   -12.25322   18.63581  -19.36279
      H1   -12.03971   19.24604  -18.61335
       H    -5.30052   13.80182   -9.83512
       O    -4.89666   12.93007  -10.03770
      H1    -5.01968   12.73815  -11.03519
       H    -4.30159   14.44985  -16.86343
       O    -4.39773   14.13500  -15.92870
      H1    -3.58165   14.37754  -15.54419
       H    -3.47386   16.83084  -12.76067
       O    -3.16405   17.57066  -13.35393
      H1    -2.77258   17.14314  -14.17170
       H    -4.49822   19.16632  -13.75051
       O    -5.13543   19.86430  -13.97390
      H1    -6.06048   19.58704  -13.68625
       H     6.15374   15.76229  -18.39809
       O     5.47585   16.39598  -18.72817
      H1     5.81033   17.28418  -18.66089
       H     4.68617   15.98366  -10.16577
       O     3.86945   16.37797  -10.50543
      H1     4.10865   16.89573  -11.27617
       H    -6.24424   18.05991  -16.26894
       O    -6.24940   18.67147  -16.99941
      H1    -6.88134   18.29262  -17.67824
       H    -0.48213   14.46292  -14.65233
       O     0.21261   14.77945  -15.20564
      H1     0.53192   13.92050  -15.54935
       H     0.93017   12.30624  -13.15482
       O     0.22998   11.67618  -13.22761
      H1    -0.32264   11.71734  -12.46603
       H     1.85004   13.85139  -12.42556
       O     2.47373   13.27273  -12.86189
      H1     2.71191   13.75631  -13.67668
       H     5.36395   15.39883  -12.04577
       O     5.52177   15.17520  -12.97571
      H1     4.66937   15.04924  -13.35097
       H    -0.82834   15.17897  -18.19276
       O    -0.74975   15.74635  -17.41136
      H1    -0.35219   15.22169  -16.67523
       H    -3.98273   15.93124  -18.32100
       O    -3.80549   15.01073  -18.61760
      H1    -4.40470   14.90474  -19.42824
       H     4.14934   17.96020  -13.39917
       O     4.31642   18.21260  -12.45931
      H1     5.28948   18.11881  -12.38029
       H    -1.91556   18.22064  -10.74226
       O    -2.22697   17.66344  -10.01780
      H1    -3.15162   17.92047   -9.97195
       H    -6.26254   13.35049  -15.94308
       O    -7.06398   12.80872  -16.14692
      H1    -6.91752   11.92494  -15.74374
       H    -4.85738    8.32252  -17.96057
       O    -5.00593    8.67237  -18.83243
      H1    -4.39976    9.45615  -18.94143
       H    -1.90914   16.57056  -16.45740
       O    -2.61762   17.07369  -16.03258
      H1    -3.11064   17.49974  -16.75453
       H    -3.41236   11.77324  -13.13906
       O    -2.69441   11.85716  -13.76304
      H1    -2.02706   11.18192  -13.59199
       H    -0.65654    9.86994  -17.43417
       O     0.19746    9.94802  -16.93362
      H1     0.92425    9.60981  -17.57245
       H    -9.35308   18.44046  -19.29266
       O    -8.68451   18.85144  -18.76200
      H1    -8.26761   19.39920  -19.49804
       H    -8.10236   14.96174  -11.67460
       O    -8.52959   15.32973  -10.83698
      H1    -7.79452   15.45967  -10.21095
       H    -9.72398   17.38188  -12.79994
       O    -9.30263   17.66499  -11.96591
      H1    -8.93865   16.79768  -11.62821
       H     2.83625    9.66523  -19.18097
       O     1.90960    9.39591  -19.27173
      H1     1.46250   10.13694  -19.77604
       H     1.04507   18.52111  -10.39073
       O     0.61906   18.43859  -11.22982
      H1    -0.16059   19.02520  -11.29766
       H     0.62954   16.20186  -13.87951
       O     0.74649   17.21412  -13.84299
      H1     0.65121   17.39087  -12.88906
       H    -5.78406   11.59273  -13.04813
       O    -5.40970   12.39791  -12.74770
      H1    -6.03071   13.10538  -12.96090
       H    -6.90731   19.78750  -11.26810
       O    -7.66811   19.81613  -11.93413
      H1    -8.14270   18.93363  -12.06928
       H    -5.66200   15.60166  -15.31059
       O    -6.41640   16.18248  -15.10949
      H1    -7.04789   15.83438  -15.71682
       H    -7.87869   17.20569  -19.03958
       O    -7.17094   16.61923  -19.15600
      H1    -6.60767   16.95504  -19.84705
       H   -12.08736   16.92226  -18.69643
       O   -12.23804   16.20931  -18.04723
      H1   -12.03922   15.30742  -18.39861
       H    -6.53061   15.09186   -8.35800
       O    -6.16599   15.23920   -9.22076
      H1    -5.71096   16.10274   -9.13771
       H     0.18321   12.28390  -19.37707
       O     0.12799   13.04847  -18.83153
      H1    -0.75751   12.99263  -18.46690
       H    -9.16977   15.32437  -16.73864
       O    -8.99942   15.00817  -15.81449
      H1    -8.38283   14.29950  -15.91939
       H     4.58907   13.44740  -17.73970
       O     5.29937   13.77812  -17.09807
      H1     5.59763   13.01188  -16.63885
       H    -9.11823   12.31080  -19.06046
       O    -8.20599   12.58231  -18.75596
      H1    -8.22161   12.61068  -17.76896
       H    -9.45242   15.92370  -18.72564
       O    -9.72104   16.27858  -17.86578
      H1   -10.71501   16.12421  -17.84964
       H     2.42753   16.86610  -17.74499
       O     3.17436   16.54455  -17.24788
      H1     3.96776   16.46165  -17.81733
       H    -4.64062   18.52095  -17.67868
       O    -3.84215   18.11569  -18.16729
      H1    -3.23809   18.84985  -18.36251
       H    -2.77933   12.10567  -17.31025
       O    -2.29948   12.66467  -17.93753
      H1    -2.90649   13.35569  -18.27627
       H    -0.56870   20.25518   -8.87973
       O    -1.10317   19.60471   -8.47169
      H1    -1.57158   19.03289   -9.10287
       H    -8.39652   13.86148  -13.28699
       O    -7.59958   14.34372  -13.09971
      H1    -7.62488   15.12189  -13.68819
       H     0.43404   17.14526  -18.44338
       O     1.15359   17.74606  -18.66705
      H1     1.06307   18.54651  -18.19470
       H     6.86340   19.07952  -18.95139
       O     5.87391   19.08423  -18.92244
      H1     5.53692   19.21194  -19.80676
       H   -12.62692   17.41203  -16.18985
       O   -12.59391   17.56146  -15.25607
      H1   -13.45988   17.95564  -14.99529
       H     0.89769   12.67462  -17.39309
       O     1.23568   12.60701  -16.44965
      H1     0.83037   11.88323  -16.01130
       H    -1.89532   18.83325  -15.92008
       O    -1.71610   19.77464  -16.00035
      H1    -1.38545   19.99607  -16.90108
       H   -11.43224   18.60402  -14.53357
       O   -10.91451   19.30618  -14.05464
      H1   -11.45194   20.10256  -13.88673
       H    -5.09789   10.36461  -15.06677
       O    -5.98893   10.46993  -14.78420
      H1    -6.21866    9.52204  -14.78863
       H    -2.13047   13.47392  -13.67072
       O    -1.92326   14.42003  -13.83578
      H1    -2.22552   14.99367  -13.09430
       H    -3.04967    9.78299  -16.21134
       O    -3.33126   10.66980  -16.23851
      H1    -3.22922   11.06310  -15.35877
       H     2.66802   13.42972  -18.33161
       O     3.43791   13.02183  -18.79189
      H1     3.51490   12.14956  -18.38169
       H    -3.07671   13.47444   -9.55584
       O    -2.42050   14.05330   -9.14816
      H1    -2.46540   13.84846   -8.17439
       H    -4.58945   15.06356  -11.79479
       O    -3.66074   15.28659  -11.68048
      H1    -3.47834   15.11383  -10.76091
       H    -5.66993   18.30509   -9.38440
       O    -4.95713   17.91621   -8.93067
      H1    -5.06734   18.07501   -7.99464

