180
frame 1 | Written by MDAnalysis XYZWriter (release 2.4.3)
       H    -0.75759    2.23725   12.28588
       O    -1.25014    2.96042   12.72371
      H1    -1.02592    3.78933   12.32566
       H    -2.29154    4.07743   18.60896
       O    -2.03257    4.35775   17.74207
      H1    -1.25779    3.82356   17.64769
       H    -1.11106   -8.58534   15.63685
       O    -1.48377   -7.64774   15.81661
      H1    -0.77739   -7.09760   15.36340
       H    -4.07212   -3.72568   10.38083
       O    -4.90954   -3.67323    9.88813
      H1    -4.75032   -4.16170    9.04540
       H     0.29176    3.07134   16.19155
       O    -0.29409    2.39208   16.58231
      H1    -0.74621    1.99771   15.85607
       H     2.75551   -1.89272   14.67611
       O     3.52329   -1.43421   15.07001
      H1     3.08289   -1.33489   15.96992
       H    -2.70526    0.43807   16.71000
       O    -1.92668   -0.09599   16.91138
      H1    -1.77871    0.10809   17.86339
       H    -6.72942   -5.47682   16.48427
       O    -6.37151   -4.67355   16.05802
      H1    -7.13174   -4.42404   15.53837
       H     1.32868   -0.76770   17.42440
       O     1.22479   -1.52575   16.83891
      H1     0.97374   -2.16897   17.56004
       H    -2.60850   -4.52103   11.65218
       O    -2.39609   -3.97922   10.84076
      H1    -1.84891   -4.57596   10.28725
       H    -6.53341   -4.21641   12.64595
       O    -6.67323   -3.33138   12.22005
      H1    -6.21268   -3.27536   11.41133
       H    -1.28824   -0.62517    8.25318
       O    -1.46760   -1.46923    8.61479
      H1    -1.74588   -1.07180    9.45270
       H     1.95600    0.11228   10.54999
       O     2.45528   -0.68488   10.48627
      H1     1.97130   -1.10508    9.76577
       H    -3.07271   -8.75039   15.92609
       O    -3.71003   -9.47401   15.74641
      H1    -4.49031   -9.07963   16.18498
       H    -4.06697    3.05271   13.29953
       O    -4.04694    2.10387   13.60514
      H1    -3.11081    1.90125   13.33492
       H    -7.34429   -4.82854   18.85322
       O    -6.45483   -4.68931   19.16318
      H1    -6.57641   -5.03608   20.07181
       H     5.62839   -4.38006   18.79814
       O     4.82384   -4.69047   18.35074
      H1     5.16638   -4.30978   17.49003
       H     1.13062   -6.47126   17.39149
       O     2.02060   -6.84033   17.27074
      H1     1.90598   -7.52154   16.52294
       H    -4.38413   -7.59924   19.01789
       O    -5.02149   -8.22520   19.36905
      H1    -5.60494   -7.54713   19.84299
       H    -7.16011   -7.90270   16.41963
       O    -7.53694   -6.97618   16.31440
      H1    -8.14851   -7.08531   15.48531
       H    -2.92454   -1.71493   17.43886
       O    -3.38793   -2.38880   17.91119
      H1    -3.51844   -3.09531   17.20284
       H    -6.39987   -2.88342   16.55390
       O    -6.08178   -2.01594   16.73237
      H1    -5.37985   -2.36425   17.36793
       H    -0.42205   -2.83110   13.68806
       O    -1.03128   -3.48514   13.94610
      H1    -1.87615   -3.12813   13.65722
       H    -6.34063   -5.82928   14.41357
       O    -6.23808   -5.85305   13.44950
      H1    -6.74662   -6.68574   13.23197
       H     0.53742   -6.99498   12.64478
       O     1.10668   -6.99474   11.83978
      H1     0.87621   -7.86562   11.49190
       H     2.51126   -9.31948   16.16874
       O     1.85654   -8.96747   15.46432
      H1     2.41479   -9.09102   14.67925
       H    -5.48308   -1.60214   13.75280
       O    -5.05271   -1.12272   14.50081
      H1    -5.40060   -1.51694   15.35699
       H     3.51873   -7.76656   13.52723
       O     3.64228   -8.73799   13.35875
      H1     3.18240   -8.89837   12.52375
       H     1.35330   -9.43523   19.22635
       O     0.92599   -9.20545   18.42789
      H1     1.55468   -8.50382   18.16193
       H     1.44331    1.09546   18.70875
       O     0.86370    0.52071   18.25480
      H1     0.40268    1.12280   17.68596
       H     1.22859   -2.83145   12.51101
       O     1.24155   -2.29535   13.34722
      H1     1.01247   -1.47375   12.93076
       H    -0.86514   -0.17261   14.30074
       O     0.02354    0.17248   14.29881
      H1     0.34551   -0.33507   15.05256
       H    -0.37803   -4.81646   17.80806
       O    -0.07689   -5.58998   18.30640
      H1    -0.98284   -5.99726   18.45874
       H     2.67659    2.00144   16.63130
       O     3.47679    2.44053   16.85550
      H1     3.62560    3.12093   16.17979
       H    -0.41576   -3.36990   20.08352
       O    -0.31993   -2.64281   19.52878
      H1    -1.00854   -2.67698   18.85245
       H    -5.59250    0.95170   12.57436
       O    -6.12012    0.37354   12.00072
      H1    -6.11554    0.88874   11.17120
       H    -0.22321   -5.72451    9.50151
       O    -1.00822   -6.16079    9.74526
      H1    -1.40285   -6.15248    8.79603
       H    -1.25283   -3.29069   16.19554
       O    -0.51367   -3.45287   16.75886
      H1     0.19714   -3.03900   16.28035
       H     4.53635    0.95062   13.01244
       O     3.68251    1.13188   12.61494
      H1     3.56555    0.29119   12.11842
       H     1.41027   -5.89762   14.44060
       O     0.45400   -6.09578   14.41267
      H1     0.20735   -5.16375   14.41960
       H    -4.23348    0.71518   15.48978
       O    -4.37648    1.06588   16.38269
      H1    -4.59902    1.96837   16.08051
       H     1.10123    1.77853   11.97164
       O     0.56295    1.37179   11.32012
      H1     0.72628    1.96688   10.53008
       H     2.89938   -5.83447   16.05417
       O     3.13030   -5.29324   15.25003
      H1     3.61100   -4.58961   15.70406
       H     4.93929   -0.71665   14.59852
       O     5.71445   -0.34580   14.16486
      H1     6.34382   -1.09052   14.37090
       H    -3.55949   -8.60215   12.49699
       O    -4.07094   -9.29550   12.99722
      H1    -3.76411   -9.03273   13.93408
       H    -1.26926  -11.00472   15.00395
       O    -0.74038  -10.36646   15.51201
      H1     0.09110  -10.31756   14.94841
       H    -2.29394    0.68210   10.55493
       O    -1.99203   -0.17882   10.91337
      H1    -1.05076    0.01094   11.09142
       H    -3.33790   -5.70745   19.86712
       O    -3.28651   -6.22257   19.03597
      H1    -2.67468   -6.96354   19.36551
       H    -2.75186   -0.45915   12.69131
       O    -2.56558   -0.65841   13.62340
      H1    -3.49330   -0.79463   13.96260
       H    -1.48311   -8.51746   20.12183
       O    -1.63141   -8.52560   19.17164
      H1    -0.77828   -8.74211   18.76345
       H    -6.32147    1.23009   16.04045
       O    -6.83837    1.10449   15.18474
      H1    -6.48133    0.24138   14.99088
       H    -3.93921   -6.87559   10.42332
       O    -4.60938   -6.49890    9.81308
      H1    -4.76933   -5.55571   10.03799
       H    -3.10414   -5.02278   14.11917
       O    -3.30912   -5.54580   13.35539
      H1    -4.33136   -5.53207   13.38574
       H     2.30979    2.48923   13.33215
       O     1.95533    3.30897   13.07919
      H1     1.29634    3.51737   13.73643
       H     1.57549   -4.79035   18.18633
       O     2.13657   -3.97263   18.14359
      H1     3.02306   -4.37038   17.99043
       H     4.67535   -2.72646   15.83249
       O     5.31051   -3.43828   16.11798
      H1     6.04142   -2.98506   15.69240
       H     1.00930   -4.96409   11.56892
       O     1.48139   -4.14217   11.44022
      H1     1.13894   -4.00802   10.55728
       H     3.53483   -4.76864   11.51137
       O     4.49193   -4.86291   11.64114
      H1     4.56282   -4.54461   12.58558
       H    -2.05236   -7.29598   10.88718
       O    -2.62913   -7.59658   11.60260
      H1    -2.68123   -6.88006   12.24904
       H    -3.27506   -5.34327   16.66757
       O    -3.57815   -4.47855   16.27847
      H1    -4.52724   -4.69609   16.29902

