180
frame 5 | Written by MDAnalysis XYZWriter (release 2.4.3)
       H    13.82117  -18.43131   -3.62393
       O    13.50280  -18.34550   -4.57288
      H1    13.20214  -19.23834   -4.73658
       H    16.83472  -17.27266    3.68605
       O    16.35649  -17.36539    2.83035
      H1    15.47130  -17.23242    3.13696
       H     8.27747  -15.61050    5.09746
       O     8.68540  -14.93462    5.74205
      H1     9.55016  -14.72255    5.20758
       H    15.44388  -16.25270   -2.63860
       O    16.16866  -15.65920   -2.80394
      H1    16.84385  -16.14988   -2.39022
       H    13.22320  -14.58879   -2.89381
       O    13.42270  -15.33889   -2.32615
      H1    12.77536  -15.97896   -2.72026
       H     6.23970  -18.52483    5.94073
       O     6.60746  -18.66888    6.79311
      H1     6.55045  -19.65408    6.93963
       H     7.52425  -13.36129    2.43095
       O     8.33388  -12.90971    2.20972
      H1     8.28801  -12.26135    2.92041
       H    10.78286  -16.83784    7.12043
       O     9.83426  -16.85077    7.38608
      H1     9.44008  -16.22249    6.74170
       H    16.98145  -13.96253    6.35744
       O    17.21659  -13.96341    7.28917
      H1    18.18809  -13.96413    7.18024
       H    12.20380  -13.75466    0.59588
       O    13.06302  -13.33845    0.90548
      H1    12.69038  -12.44248    1.15569
       H    11.13685  -16.21422   -4.20880
       O    11.51883  -16.79089   -3.55890
      H1    11.85170  -17.45127   -4.22529
       H     8.52791  -10.38247    4.46311
       O     7.85920  -11.10707    4.30907
      H1     7.21187  -10.60135    3.83570
       H    13.14006  -12.00045   -0.47005
       O    12.69849  -11.42913   -1.09589
      H1    11.76388  -11.51431   -0.82781
       H     9.30486  -15.45296   -4.80862
       O    10.06789  -15.23942   -5.41475
      H1    10.26343  -14.33566   -5.12732
       H    14.77195  -17.01913    6.13200
       O    14.96955  -17.95956    6.28731
      H1    14.37584  -18.22036    6.91016
       H    10.64745  -16.90948    0.13938
       O    10.53204  -16.59237    1.05140
      H1    10.47986  -15.63410    0.81583
       H    16.66625  -14.68330    0.93482
       O    17.16488  -14.75822    1.78459
      H1    16.72901  -15.52455    2.18616
       H     7.51119  -16.72918   -3.07391
       O     8.00560  -16.24117   -3.83068
      H1     7.31206  -16.00436   -4.47654
       H     4.53700  -14.75193    0.67189
       O     4.23148  -15.67808    0.60386
      H1     3.27424  -15.75227    0.79600
       H     9.11192  -17.79828    1.18222
       O     8.24064  -18.24353    1.04000
      H1     7.92525  -17.79598    0.23562
       H     5.28828  -18.52670    7.99151
       O     4.55036  -18.37304    8.59740
      H1     4.95755  -18.46204    9.47821
       H    13.38437  -14.55863    2.12520
       O    13.47062  -15.41198    2.56211
      H1    13.64168  -16.08440    1.85030
       H     6.53841  -18.44345   -2.05717
       O     6.36290  -17.52760   -1.98870
      H1     5.40496  -17.48549   -2.08355
       H     3.16685  -17.27749    5.07531
       O     2.76830  -16.48484    4.69274
      H1     3.28444  -15.78738    5.09048
       H     4.92991  -12.16579    0.35678
       O     4.25133  -12.46959    0.96145
      H1     4.66588  -12.37654    1.82697
       H    13.25718  -12.46313   -4.20538
       O    12.69493  -12.83510   -3.46350
      H1    12.77363  -12.12980   -2.80006
       H     9.22787   -8.85462    5.97596
       O     9.75285   -9.65864    5.76779
      H1    10.67137   -9.35339    5.83327
       H    11.50916  -11.06866    2.68912
       O    11.92887  -11.01137    1.83901
      H1    11.26882  -10.50305    1.33668
       H     7.84254  -13.37492    6.31415
       O     7.13570  -12.70958    6.34175
      H1     7.41787  -12.14501    5.60486
       H     4.79193  -16.11953    2.30255
       O     5.06158  -16.04615    3.25473
      H1     4.25578  -16.36959    3.73248
       H    14.41417  -14.64585    5.75617
       O    14.68062  -15.41058    5.19711
      H1    14.06556  -15.37608    4.44835
       H    13.18874  -18.93403    3.72275
       O    13.45456  -18.02815    4.01298
      H1    13.99993  -18.16364    4.78504
       H    17.70701  -19.43771    5.37765
       O    17.81062  -18.61098    5.87753
      H1    16.87820  -18.42634    6.16351
       H     8.52181  -11.95541    7.56237
       O     8.91133  -11.16518    8.01357
      H1     9.28280  -10.63331    7.27029
       H     8.43302  -15.36965   10.55010
       O     7.68634  -14.77188   10.80323
      H1     7.34026  -15.26592   11.56634
       H    13.81203  -14.88436    8.35464
       O    13.93249  -15.75748    8.80766
      H1    13.62127  -15.51651    9.72532
       H    15.25771  -18.81298   -1.77806
       O    14.71172  -18.07125   -2.05459
      H1    14.06707  -18.15177   -1.35956
       H    15.35577  -14.73616   -1.19494
       O    15.30541  -14.21097   -0.44829
      H1    14.39419  -14.04791   -0.24955
       H     5.88582  -13.19292    4.16534
       O     5.88232  -13.12622    3.23206
      H1     5.71060  -14.08296    3.02236
       H    12.92354  -16.44912    7.44864
       O    12.31281  -17.02379    6.94431
      H1    12.19941  -17.64733    7.67163
       H    12.37218  -18.39341    9.79966
       O    11.51176  -18.37977    9.39585
      H1    11.12294  -17.53219    9.68200
       H     8.72379  -12.83226   -2.49003
       O     8.71759  -13.54888   -1.86750
      H1     8.60523  -14.27168   -2.49749
       H    11.24594  -15.06291    4.19003
       O    11.34611  -14.28602    4.80585
      H1    11.70630  -13.60835    4.24667
       H     6.83984  -16.68502    3.57805
       O     7.77679  -16.78201    3.74695
      H1     8.10470  -17.04065    2.89608
       H     4.27771  -16.04308    7.61893
       O     4.08931  -15.20359    7.23687
      H1     5.01033  -14.83450    7.30619
       H    10.99598  -16.88726    2.86690
       O    11.05446  -16.89105    3.83564
      H1    11.91683  -17.29601    3.97926
       H     9.22665  -10.20743   -0.75977
       O     9.94650  -10.84542   -0.64472
      H1     9.36154  -11.62187   -0.48879
       H    13.56968  -12.52691    7.27937
       O    13.72540  -13.45036    7.01130
      H1    13.07511  -13.53457    6.31409
       H    18.55119  -15.53366    1.33279
       O    19.22994  -15.87874    0.73374
      H1    20.06218  -15.61373    1.25901
       H     9.70023  -19.64418    6.09849
       O     9.91554  -19.86408    7.04190
      H1     9.92997  -18.98931    7.39995
       H     9.64387  -13.66675    1.29436
       O    10.22868  -13.89798    0.50530
      H1     9.61486  -13.89831   -0.27883
       H    14.71706  -17.77286    0.64821
       O    13.90184  -17.24483    0.49067
      H1    14.13107  -16.57367   -0.16210
       H     9.07315  -17.13174   10.24557
       O     9.59893  -16.37708    9.98607
      H1     9.60335  -16.52781    9.01252
       H    13.89477  -10.39834    1.61902
       O    14.82722  -10.35121    1.94669
      H1    15.29918  -10.99807    1.45765
       H     7.03686  -16.73303    8.22395
       O     6.63345  -15.86607    8.38771
      H1     6.91422  -15.67472    9.27648
       H    18.79484  -17.15746    4.55565
       O    18.90706  -16.21106    4.33533
      H1    19.25743  -15.89433    5.18680
       H    17.12940  -13.82186    3.57802
       O    16.72675  -13.53364    4.39731
      H1    16.22935  -14.30059    4.65121
       H    13.97663  -19.15628   10.10053
       O    13.72064  -18.77449   10.93771
      H1    13.18411  -19.52534   11.32296
       H    10.51327  -18.97034    4.07863
       O     9.55240  -19.24275    4.35968
      H1     9.14550  -18.36818    4.39235
       H    10.38659  -18.88042   -1.22032
       O    11.21584  -18.41185   -0.99334
      H1    11.23715  -17.76717   -1.71738

