180
frame 0 | Written by MDAnalysis XYZWriter (release 2.4.3)
       H    -6.39475   -7.70460  -11.97379
       O    -6.68642   -8.05831  -11.12658
      H1    -6.01781   -7.62975  -10.56123
       H    -1.77808    0.46496  -14.07849
       O    -1.47146   -0.04014  -13.27592
      H1    -2.29822    0.06305  -12.73090
       H    -1.53849   -3.08477  -13.67188
       O    -2.14277   -2.49417  -14.10442
      H1    -1.71669   -1.63223  -13.84486
       H    -9.52738   -6.05599  -18.93862
       O    -9.87441   -6.97642  -18.76366
      H1    -9.69263   -7.29539  -19.71178
       H    -4.08414    1.83280  -18.37625
       O    -3.25622    2.17867  -18.02229
      H1    -2.71988    1.57376  -18.50620
       H    -7.14358    1.52628  -17.19292
       O    -7.74278    1.22726  -16.47004
      H1    -7.82878    0.25297  -16.66365
       H    -6.63011   -1.69347  -10.86875
       O    -7.57799   -1.43210  -11.04835
      H1    -7.77649   -0.98918  -10.21949
       H    -4.30060    4.10436  -19.72556
       O    -3.70366    4.64120  -19.26224
      H1    -3.25995    3.99459  -18.67909
       H    -2.29830    3.69246  -14.08343
       O    -3.22070    3.57310  -13.95825
      H1    -3.25102    3.42561  -12.97698
       H   -11.67064   -0.05109  -16.15898
       O   -11.45998   -0.11441  -17.11207
      H1   -12.20177   -0.56957  -17.40965
       H    -4.91380    1.80285  -14.66154
       O    -5.73769    1.33965  -14.49054
      H1    -6.34959    1.45920  -15.24733
       H    -6.78412    5.59513  -15.98458
       O    -6.70135    6.48630  -15.59747
      H1    -6.58299    6.26199  -14.64387
       H    -5.58906   -1.95744  -15.03623
       O    -5.55494   -1.32019  -15.75169
      H1    -5.56930   -0.49700  -15.21715
       H    -4.51165   -1.43723  -17.39140
       O    -4.38766   -1.30642  -18.33197
      H1    -5.22745   -1.52675  -18.74894
       H    -8.87087   -7.10111  -12.14760
       O    -9.34425   -6.96796  -12.91088
      H1    -9.30270   -5.98916  -13.07822
       H    -8.94621   -4.42087  -11.18825
       O    -8.01591   -4.11204  -10.97859
      H1    -8.14162   -3.13251  -10.97576
       H     0.52451   -2.69104  -12.10120
       O     0.07430   -2.87275  -11.28079
      H1     0.36169   -3.74991  -11.02368
       H    -0.12116    0.49709  -11.77530
       O    -0.01162    1.25968  -11.17149
      H1    -0.75053    1.83749  -11.34212
       H    -6.31670   -5.40191  -13.48114
       O    -5.77827   -5.42031  -12.70707
      H1    -6.48079   -5.25563  -12.06339
       H    -2.96244   -5.98880  -12.43694
       O    -3.33722   -6.52165  -11.67819
      H1    -3.92807   -5.90415  -11.27944
       H    -0.82205    4.43749  -18.37216
       O    -1.47447    4.55728  -17.63526
      H1    -1.60347    3.62893  -17.37506
       H    -9.94827    0.24476   -9.92736
       O   -10.59538    0.52047  -10.64013
      H1   -11.40526    0.53262  -10.08210
       H    -7.77968   -2.79854  -13.94639
       O    -8.11460   -1.82895  -13.94275
      H1    -7.83807   -1.56189  -13.00711
       H    -0.64295   -2.82976  -16.87560
       O    -1.32126   -3.39933  -16.52936
      H1    -1.63996   -2.84818  -15.79061
       H   -13.65290   -2.32987  -19.78109
       O   -13.02299   -2.37734  -19.01103
      H1   -12.11974   -2.09787  -19.31558
       H    -7.11184    4.85257  -12.69931
       O    -6.80443    5.72979  -12.97406
      H1    -7.64778    6.22600  -13.16700
       H    -0.59388    0.48615  -19.25090
       O    -1.45873    0.09294  -19.05031
      H1    -1.35674   -0.86710  -19.31206
       H   -11.56979   -1.84025  -14.17298
       O   -11.99904   -1.11517  -13.73451
      H1   -11.34959   -0.42319  -13.62681
       H    -9.50909   -4.56753  -14.69832
       O    -8.59412   -4.72813  -14.42008
      H1    -8.20564   -5.23298  -15.13492
       H    -3.12943    1.62422  -16.49317
       O    -2.90613    1.34467  -15.52008
      H1    -3.12933    2.20489  -15.10960
       H    -2.65376   -7.60493  -16.81405
       O    -3.41418   -6.97990  -16.98497
      H1    -4.09812   -7.68320  -16.97320
       H    -1.10153   -4.55351  -12.04967
       O    -1.11413   -4.93050  -12.91836
      H1    -0.53062   -5.66132  -12.69910
       H    -2.35264   -4.17069  -17.91254
       O    -2.82770   -4.29433  -18.75096
      H1    -3.04623   -3.35232  -18.96615
       H    -4.64924   -0.28441  -12.38002
       O    -4.00128   -0.03721  -11.70043
      H1    -4.19027    0.91875  -11.42768
       H    -8.16846    2.18338  -12.72895
       O    -7.24594    2.56816  -12.58536
      H1    -6.64133    1.99646  -13.15826
       H   -10.66195    1.58338  -16.58818
       O   -10.24041    2.17839  -15.95894
      H1    -9.33460    1.83575  -15.95578
       H    -8.46398   -7.63361  -17.74879
       O    -7.65121   -7.98199  -17.34703
      H1    -8.04445   -8.27544  -16.52082
       H    -9.13422   -3.08911  -16.68751
       O    -9.69126   -3.91331  -16.86784
      H1    -9.25015   -4.22191  -17.66568
       H    -7.63901    4.23400  -17.56304
       O    -6.65562    4.43999  -17.72098
      H1    -6.71403    5.26877  -18.24149
       H    -9.33332   -0.40056  -13.80726
       O    -9.63465    0.42472  -13.37327
      H1    -9.48999    0.20177  -12.46650
       H    -9.70094    3.59471  -16.83115
       O    -9.35920    4.05399  -17.60452
      H1    -9.95428    4.83302  -17.58537
       H   -11.18359   -4.39578  -12.52484
       O   -11.37884   -4.21769  -13.47026
      H1   -12.00751   -4.92925  -13.54974
       H    -7.90284   -1.56624  -15.82208
       O    -8.30652   -1.54571  -16.72792
      H1    -7.39179   -1.61824  -17.08813
       H    -3.89441   -8.46481  -13.90570
       O    -4.71174   -7.92455  -13.87422
      H1    -4.52371   -7.21382  -13.25665
       H   -11.09162    2.82774  -12.42622
       O   -10.25160    2.86670  -11.96517
      H1   -10.41794    2.06950  -11.42495
       H    -0.10240    4.12961  -15.20299
       O    -0.47823    3.87552  -14.34835
      H1    -0.44864    4.71061  -13.80585
       H    -3.99753   -3.03789  -13.78954
       O    -4.93695   -2.97629  -13.47403
      H1    -5.01605   -3.87070  -13.13331
       H     0.01632    1.84470  -15.84241
       O    -0.58181    2.03513  -16.61139
      H1    -1.39814    1.60523  -16.24727
       H    -4.44634   -0.85331  -10.42042
       O    -4.51105   -1.40197   -9.60696
      H1    -3.85935   -2.16643   -9.70213
       H   -12.64718    2.40417  -14.34384
       O   -12.21673    3.20584  -14.12172
      H1   -11.32623    2.98204  -14.52186
       H    -4.53548    3.36230  -11.00308
       O    -4.70864    2.61912  -11.58472
      H1    -5.65769    2.57258  -11.72263
       H    -0.09825    0.09517  -16.48988
       O     0.27060   -0.72545  -16.83300
      H1    -0.27483   -0.96005  -17.61621
       H   -11.46224   -3.89474  -16.79529
       O   -12.39692   -4.05251  -16.72901
      H1   -12.66929   -3.40921  -17.37795
       H    -3.96230    5.40713  -13.51952
       O    -3.70994    6.31141  -13.77046
      H1    -3.02962    6.19816  -14.47006
       H    -5.54701   -1.81992   -8.26333
       O    -6.13215   -2.12032   -7.53875
      H1    -6.42708   -2.97268   -7.90266
       H    -5.35573   -5.22392  -17.25968
       O    -5.30806   -4.47643  -17.89569
      H1    -4.32414   -4.61980  -18.02894
       H     1.06616   -4.71223  -16.60251
       O     0.92856   -4.72328  -15.62399
      H1     0.11378   -4.20901  -15.57013
       H    -6.28850    2.90037  -18.57165
       O    -6.03219    2.07757  -19.02873
      H1    -6.44613    2.13104  -19.94402
       H    -6.56615   -6.91792  -16.01002
       O    -6.19219   -6.12263  -15.64953
      H1    -5.45746   -6.39731  -15.11378
       H     1.50843   -3.04671  -14.68000
       O     1.43282   -2.32053  -13.97563
      H1     1.23503   -1.58943  -14.56353

