180
frame 8 | Written by MDAnalysis XYZWriter (release 2.4.3)
       H   -17.56510   -1.64718    6.31909
       O   -16.80333   -1.61566    6.92988
      H1   -16.97319   -1.02144    7.68550
       H   -19.10662    0.96776   10.47102
       O   -19.74713    1.50422   10.03675
      H1   -19.26191    2.26551    9.71041
       H   -16.98114    0.28446   10.14733
       O   -17.32719    0.54581   10.99560
      H1   -16.62228    1.16132   11.28208
       H   -12.70103   -1.45484   16.57117
       O   -12.54982   -0.54997   16.28984
      H1   -11.91997   -0.73218   15.52754
       H   -10.04934   -2.19559    8.44511
       O    -9.86884   -2.59828    7.54701
      H1   -10.13257   -3.52237    7.59056
       H   -16.32079    2.91502   16.24289
       O   -16.88106    2.15156   16.31816
      H1   -16.39578    1.72401   17.01889
       H   -12.57762    3.80811   15.15094
       O   -11.86992    4.17261   14.58120
      H1   -11.67367    4.99256   15.08816
       H    -6.06372   -2.05841   10.08131
       O    -6.87351   -2.54738   10.17674
      H1    -7.39227   -1.89981   10.70190
       H   -12.91582    3.40004    6.30301
       O   -13.77972    2.99163    6.55454
      H1   -14.09187    2.68100    5.66354
       H   -10.33276   -0.90885   10.50184
       O   -10.84396   -0.89722    9.69357
      H1   -11.63243   -0.48292   10.08041
       H   -14.28352    3.04537   16.33497
       O   -14.63881    3.78217   15.80187
      H1   -14.57118    4.49218   16.42325
       H   -11.17152    1.79876   11.58775
       O   -10.56020    1.76616   10.84086
      H1   -11.14186    2.17970   10.11441
       H    -9.96662    3.56555    7.33532
       O    -9.18279    3.69985    7.86329
      H1    -8.93599    2.77234    8.11371
       H   -11.90939    0.80486    8.15240
       O   -12.18688    1.72369    8.37650
      H1   -12.94456    1.96131    7.83807
       H   -10.54195   -6.73720    6.83344
       O   -11.36296   -6.89351    7.40102
      H1   -12.07819   -6.48417    6.91970
       H   -11.21378   -0.08352   13.49069
       O   -11.06186   -0.94726   13.90152
      H1   -10.16071   -1.16014   13.70127
       H   -18.45457    2.48558   14.28905
       O   -19.06538    1.90098   13.76297
      H1   -18.58529    1.05736   13.75985
       H   -18.46757   -4.48111    7.76014
       O   -19.43704   -4.60737    7.63874
      H1   -19.67372   -3.78771    8.04756
       H   -18.84734   -5.89630   11.86199
       O   -18.24074   -5.19081   12.11049
      H1   -17.69966   -5.67437   12.76502
       H   -12.38805   -6.78427   10.36502
       O   -11.59454   -7.26253   10.07418
      H1   -11.53375   -7.07870    9.11083
       H    -9.10199   -3.78500   13.14250
       O    -9.09693   -2.86633   13.57283
      H1    -8.36388   -2.97616   14.20664
       H   -16.83515    4.61980   13.35401
       O   -17.27697    4.60407   14.22733
      H1   -16.59239    4.71255   14.85628
       H   -15.71623   -3.82740   16.28773
       O   -15.90096   -3.48694   15.43142
      H1   -15.65971   -2.53776   15.48753
       H   -15.42374   -0.64411   16.86327
       O   -15.12156   -1.10307   16.08667
      H1   -14.27127   -0.64340   15.86482
       H   -12.19151   -0.62578    6.06390
       O   -12.17046   -0.93062    6.96974
      H1   -11.41998   -1.51651    7.08720
       H    -8.49734    2.59113   13.01601
       O    -8.31278    2.29480   12.14791
      H1    -9.26573    2.19453   11.81652
       H   -15.83985   -7.68914    8.04986
       O   -16.53115   -6.98689    7.87061
      H1   -16.64793   -6.60409    8.75353
       H   -17.06080   -7.81891   14.03514
       O   -16.72088   -7.05218   13.55089
      H1   -16.10483   -7.53998   12.92747
       H   -14.39183    1.74164   10.92858
       O   -14.75776    1.88962   11.81644
      H1   -14.63230    2.88940   11.86975
       H   -15.94734    3.08237    7.49245
       O   -16.86245    2.86146    7.22620
      H1   -17.36437    3.53187    7.72939
       H    -9.13665    1.16940    9.19548
       O    -8.30721    1.39152    8.72278
      H1    -7.67768    1.24496    9.43499
       H   -14.78842   -4.10672   14.18554
       O   -14.15866   -4.62486   13.71257
      H1   -13.52476   -4.88677   14.44627
       H    -8.55418   -3.39341   10.13269
       O    -9.50334   -3.55383   10.30250
      H1    -9.41710   -4.47836   10.54265
       H   -18.55942    1.07940    4.51501
       O   -17.98733    0.64940    3.80037
      H1   -17.16586    0.45006    4.25829
       H   -14.38094    5.08756   12.26129
       O   -14.85887    4.31810   12.66995
      H1   -14.58208    4.58341   13.55053
       H   -12.34254   -6.23549   15.20285
       O   -12.85516   -5.57031   15.78892
      H1   -13.55758   -6.09799   16.12845
       H   -16.97690    6.37633    7.50782
       O   -16.59187    5.63479    7.98487
      H1   -15.64561    5.75706    7.97650
       H   -13.77946   -4.86420    6.12885
       O   -13.15894   -5.64067    5.87757
      H1   -13.83570   -6.26190    5.56447
       H   -12.93307   -1.09076    3.90300
       O   -12.68002   -0.26401    4.42576
      H1   -13.62944   -0.05087    4.68975
       H   -18.47658   -0.98845   11.38209
       O   -18.84411   -1.81702   11.68245
      H1   -18.16771   -1.99305   12.34791
       H   -16.14256    1.07958    7.81894
       O   -16.15039    0.35608    8.48267
      H1   -15.24843    0.30105    8.80460
       H   -11.27249   -3.19910   10.21122
       O   -12.21637   -3.31397   10.26844
      H1   -12.44874   -2.71627   11.04698
       H   -16.68631   -0.56763   14.35844
       O   -17.61792   -0.49767   14.54577
      H1   -17.51190   -0.12668   15.43961
       H   -19.45138    0.47657    8.43994
       O   -19.13652   -0.05225    7.69634
      H1   -19.91071   -0.59488    7.59830
       H   -14.35803   -0.79519   10.70398
       O   -13.84379   -0.33763   10.04251
      H1   -13.59816   -1.00753    9.43794
       H    -8.56703   -1.68670   12.56273
       O    -8.49819   -1.02627   11.83821
      H1    -7.85245   -0.35509   12.13790
       H   -13.16007    4.57129    9.61582
       O   -13.19730    3.81757   10.17509
      H1   -13.06473    3.03278    9.59624
       H   -14.50680   -0.89246   13.02667
       O   -15.14786   -0.21858   13.32171
      H1   -14.79765    0.56554   12.90786
       H   -12.94322    1.78909   12.70916
       O   -12.03639    1.70568   13.05642
      H1   -11.75589    2.63756   13.30939
       H   -17.07458   -3.51794    4.64876
       O   -16.37706   -3.95573    4.15918
      H1   -16.19199   -4.77643    4.69162
       H   -14.10208   -5.41694   11.76610
       O   -13.77793   -5.42918   10.80351
      H1   -13.13773   -4.63817   10.88589
       H   -15.14455   -2.69001    7.06107
       O   -14.19191   -3.06569    7.06281
      H1   -13.56744   -2.42305    7.31623
       H   -19.28644    4.67164    9.12672
       O   -18.94289    3.86965    8.65472
      H1   -19.25983    4.02119    7.73250
       H    -8.43555    0.31777    6.55810
       O    -8.58422   -0.43502    5.99066
      H1    -9.10372   -1.02801    6.55462
       H   -16.04319   -5.07306   10.07815
       O   -16.87469   -5.08037    9.62140
      H1   -17.44566   -4.97774   10.38905
       H   -12.24178   -1.99425   13.12207
       O   -13.08797   -2.25179   12.65402
      H1   -13.13198   -3.17700   12.94128
       H   -10.08619   -6.08583   13.32773
       O    -9.39683   -5.59097   12.85861
      H1    -8.61678   -5.73933   13.45495
       H   -18.56699   -3.35936   15.73754
       O   -18.97775   -2.82709   15.09355
      H1   -18.29444   -2.21489   14.78381
       H   -12.70082    1.06896   16.60514
       O   -12.58113    2.01783   16.85913
      H1   -11.78174    2.22919   16.40616
       H   -16.03664   -1.35621    4.46293
       O   -15.70065   -0.60039    4.87224
      H1   -16.08541   -0.79033    5.76717

