180
frame 4 | Written by MDAnalysis XYZWriter (release 2.4.3)
       H     1.02020    4.20808   -9.41894
       O     0.38505    4.54010   -8.71651
      H1    -0.22440    5.10461   -9.28239
       H    -0.84080    0.18280  -14.68813
       O    -1.55907    0.23054  -14.05272
      H1    -2.43329    0.47780  -14.50374
       H    -6.60185    2.27456   -5.57208
       O    -6.61647    3.24445   -5.56352
      H1    -6.20978    3.42501   -6.41940
       H    -2.19636   -2.94789  -13.23448
       O    -2.42788   -2.43447  -14.05331
      H1    -2.05693   -1.53372  -13.91868
       H   -10.06375    7.29991  -11.92252
       O    -9.56285    6.52218  -11.92601
      H1    -9.71865    6.23741  -12.82818
       H    -3.43905    1.96563  -17.86259
       O    -2.65460    1.72429  -17.43924
      H1    -2.41760    0.79459  -17.79720
       H    -7.08273    1.77706  -17.60059
       O    -7.80148    2.12882  -17.06717
      H1    -8.19439    1.31216  -16.78140
       H    -7.50531    0.77061   -8.04288
       O    -7.95512   -0.08708   -8.28907
      H1    -8.72680   -0.21336   -7.67694
       H    -5.83898   -2.14203   -9.56987
       O    -6.57967   -1.77527  -10.09926
      H1    -7.04157   -1.22951   -9.44251
       H    -3.06031    3.79271  -13.15059
       O    -3.43238    4.19503  -13.91109
      H1    -4.25822    4.49312  -13.61981
       H    -2.55443    8.09234  -12.10153
       O    -1.67505    8.27832  -11.77314
      H1    -1.79586    9.15144  -11.33543
       H    -5.50028    1.85189  -14.61293
       O    -6.43985    2.06126  -14.48529
      H1    -6.74953    2.06119  -15.39141
       H    -3.74354    4.13070   -3.64991
       O    -3.29710    4.77581   -4.21540
      H1    -3.48331    4.40968   -5.12683
       H    -5.69856    5.92973  -16.10541
       O    -5.78780    6.21484  -15.20166
      H1    -6.34813    5.57902  -14.72915
       H    -6.09420   -1.25908  -14.38822
       O    -6.57323   -0.70293  -15.02215
      H1    -6.62927    0.17493  -14.62218
       H    -0.04402    5.09178  -12.47230
       O     0.58866    5.17116  -11.75489
      H1     1.06482    4.31044  -11.97711
       H    -9.08409   -4.02767  -10.95270
       O    -8.24375   -4.50329  -10.90132
      H1    -7.64958   -3.73963  -10.82904
       H    -9.94774    7.01193  -14.68778
       O   -10.08708    7.93498  -14.96963
      H1   -10.79204    7.76173  -15.60703
       H    -2.60079    4.29479  -10.72356
       O    -2.67015    3.40437  -11.13620
      H1    -3.06226    2.97189  -10.35279
       H     0.73184    2.68257  -13.05800
       O     1.71056    2.93210  -13.08045
      H1     1.59657    3.71404  -13.60966
       H    -6.72066    9.07844  -11.17729
       O    -6.06774    8.77977  -10.57715
      H1    -6.60048    8.11170  -10.06216
       H    -1.05688    1.23348  -12.52908
       O    -0.59069    1.95458  -12.14982
      H1    -1.33885    2.46086  -11.76447
       H    -7.11550    7.97751   -7.71617
       O    -6.87910    7.34363   -8.41964
      H1    -6.08226    6.85530   -8.12195
       H    -8.41656    8.24722  -15.47979
       O    -7.59599    8.35094  -15.99416
      H1    -7.04430    7.58198  -15.65277
       H    -8.66489    0.18961   -9.87859
       O    -9.03228    0.28957  -10.75540
      H1    -8.68310   -0.40500  -11.30846
       H    -8.41682   -2.10814  -13.45396
       O    -8.32763   -1.78097  -12.57653
      H1    -7.40341   -1.91823  -12.37782
       H    -7.43094    3.91379  -13.33711
       O    -7.22521    4.81064  -13.02855
      H1    -8.09071    5.16038  -12.65770
       H   -12.60596   -1.35917  -13.53205
       O   -12.72577   -0.43148  -13.23173
      H1   -11.82022   -0.04355  -13.45463
       H    -3.51759    1.77406  -15.71642
       O    -3.90021    1.50882  -14.82253
      H1    -3.63485    2.26934  -14.31109
       H    -4.50922    7.81422  -13.51300
       O    -4.32120    7.71564  -12.53563
      H1    -5.14284    7.84423  -12.03866
       H    -9.92339   -0.83722   -5.98258
       O   -10.10161   -0.52360   -6.88595
      H1   -10.27600    0.43959   -6.66440
       H    -3.35113    1.38066   -6.67960
       O    -3.53790    1.20859   -5.74569
      H1    -4.47148    0.89523   -5.72273
       H    -0.57670    1.50145   -7.98525
       O    -0.85518    0.69102   -8.49450
      H1    -0.23530    0.73378   -9.26473
       H    -4.35446    5.14289   -8.09662
       O    -5.13730    4.86924   -8.57669
      H1    -4.97812    5.20745   -9.50683
       H    -4.69216   -0.03022  -12.38649
       O    -4.19180    0.55544  -11.85210
      H1    -4.91941    1.26040  -11.71480
       H    -8.82633    2.10042  -12.00465
       O    -8.61524    2.24861  -12.95483
      H1    -7.65331    2.10282  -12.90180
       H   -10.32671    3.16814   -8.77457
       O    -9.76355    2.99300   -9.53106
      H1    -9.78248    2.03520   -9.66059
       H    -3.48253   10.20823   -8.99066
       O    -3.85500    9.33040   -8.86294
      H1    -4.45069    9.30530   -9.65818
       H    -6.95045    4.87953  -17.97681
       O    -6.05651    5.11248  -17.75853
      H1    -5.78679    5.73045  -18.40349
       H    -9.99366    5.54318  -15.38527
       O    -9.68331    5.33186  -14.47453
      H1   -10.21307    4.51891  -14.26916
       H    -5.98031    5.36237  -11.88606
       O    -5.29329    5.36476  -11.21279
      H1    -4.69571    6.08669  -11.42418
       H    -9.54359   -0.36691  -13.29906
       O   -10.01003    0.13639  -13.92322
      H1    -9.77436    1.08023  -13.68900
       H   -10.67931    4.35043  -10.39330
       O   -11.50239    4.91972  -10.51467
      H1   -11.08162    5.69341  -10.88390
       H   -10.31758    2.92812   -5.99617
       O   -10.77181    2.23776   -6.49228
      H1   -11.70228    2.20653   -6.27387
       H    -8.35839    3.54825  -17.78858
       O    -8.74489    4.30274  -18.27177
      H1    -9.36929    4.61405  -17.58264
       H    -6.27817    3.52270   -8.72954
       O    -6.92879    2.80595   -8.78716
      H1    -7.64269    3.29545   -9.21226
       H    -1.92535    7.17189   -7.19981
       O    -2.77182    6.79377   -7.50829
      H1    -3.22233    7.60631   -7.77803
       H    -2.18349    7.06957  -10.80019
       O    -2.34796    6.26023  -10.32309
      H1    -2.17498    6.71200   -9.45776
       H    -9.22361   -0.14965  -15.59639
       O    -8.91393   -0.21550  -16.51190
      H1    -7.95362   -0.41239  -16.34154
       H    -2.10628    3.58601   -6.85188
       O    -2.91432    4.11419   -6.75125
      H1    -2.64371    5.02682   -7.00695
       H   -12.63420    2.62404  -13.91718
       O   -11.98025    2.67419  -13.19447
      H1   -12.51130    2.88478  -12.46599
       H    -2.60879    0.52018   -9.26831
       O    -3.54095    0.57880   -9.16432
      H1    -3.81809    0.43894  -10.09896
       H    -4.25814   -2.19331  -13.48786
       O    -5.11730   -2.12839  -13.07487
      H1    -5.49778   -3.00405  -13.29578
       H    -0.17230    3.49153  -15.57036
       O    -0.37187    2.62763  -15.86580
      H1    -1.32571    2.69193  -16.10046
       H    -3.72989   -1.39274   -9.47147
       O    -3.79906   -2.33137   -9.63642
      H1    -4.23897   -2.27585  -10.54480
       H    -5.58321    3.59468  -11.37492
       O    -5.86687    2.66063  -11.42189
      H1    -6.16564    2.51817  -10.52476
       H    -5.89526   -0.72035   -5.83032
       O    -6.00314    0.19211   -5.36353
      H1    -6.62955   -0.05434   -4.63336
       H    -2.99401    4.71796  -15.73717
       O    -2.54918    4.87463  -16.60664
      H1    -1.98746    5.66636  -16.34320
       H    -8.36371    3.94438   -5.36041
       O    -9.26279    4.12682   -5.04978
      H1    -9.33528    5.07170   -5.23471
       H    -5.30564   -2.81226   -7.40626
       O    -5.89195   -2.14788   -6.95263
      H1    -6.55567   -2.78698   -6.56949

