180
frame 8 | Written by MDAnalysis XYZWriter (release 2.4.3)
       H   -17.56510   -1.64718    6.31909
       O   -16.80333   -1.61566    6.92988
      H1   -16.97319   -1.02144    7.68550
       H   -15.75073   -8.21367    2.01767
       O   -16.13557   -7.36745    2.14576
      H1   -16.87065   -7.50907    2.75943
       H   -19.10662    0.96776   10.47102
       O   -19.74713    1.50422   10.03675
      H1   -19.26191    2.26551    9.71041
       H   -10.43230   -2.17907    0.57355
       O    -9.79534   -1.63638    0.09035
      H1    -9.02385   -2.11468    0.34542
       H   -16.98114    0.28446   10.14733
       O   -17.32719    0.54581   10.99560
      H1   -16.62228    1.16132   11.28208
       H   -13.26099    2.71608    3.66207
       O   -14.24771    2.78548    3.80355
      H1   -14.30075    3.74542    3.85585
       H   -13.39035    3.80926   -0.51735
       O   -13.45941    3.36761    0.34077
      H1   -14.19620    3.79983    0.76163
       H   -10.04934   -2.19559    8.44511
       O    -9.86884   -2.59828    7.54701
      H1   -10.13257   -3.52237    7.59056
       H   -13.30823    0.21552   -0.73011
       O   -14.22781    0.63571   -0.76502
      H1   -13.84231    1.51567   -0.62276
       H   -12.91582    3.40004    6.30301
       O   -13.77972    2.99163    6.55454
      H1   -14.09187    2.68100    5.66354
       H   -10.33276   -0.90885   10.50184
       O   -10.84396   -0.89722    9.69357
      H1   -11.63243   -0.48292   10.08041
       H   -15.02825   -3.39170    0.16066
       O   -15.76586   -3.46488   -0.41133
      H1   -16.46199   -3.48621    0.29241
       H   -12.39113   -3.43582    1.38071
       O   -11.46964   -3.62982    1.07692
      H1   -11.18691   -3.67330    2.00355
       H   -16.30020   -7.31146    4.99350
       O   -16.03317   -6.41662    5.30492
      H1   -16.30558   -6.57976    6.20678
       H   -19.24083   -3.03707   -0.84272
       O   -19.30907   -2.23503   -0.31153
      H1   -19.48854   -1.63346   -1.07827
       H   -18.65473   -1.03425    4.56634
       O   -18.73621   -2.00809    4.67717
      H1   -19.62870   -2.27788    4.52186
       H   -11.17152    1.79876   11.58775
       O   -10.56020    1.76616   10.84086
      H1   -11.14186    2.17970   10.11441
       H   -11.90939    0.80486    8.15240
       O   -12.18688    1.72369    8.37650
      H1   -12.94456    1.96131    7.83807
       H   -10.54195   -6.73720    6.83344
       O   -11.36296   -6.89351    7.40102
      H1   -12.07819   -6.48417    6.91970
       H   -11.01835   -1.13600    3.63422
       O   -10.52491   -1.92534    3.49377
      H1   -11.19679   -2.61541    3.60458
       H   -11.37847    0.88817    0.80675
       O   -11.52198    0.34196    1.58737
      H1   -11.00102   -0.44192    1.32406
       H   -18.46757   -4.48111    7.76014
       O   -19.43704   -4.60737    7.63874
      H1   -19.67372   -3.78771    8.04756
       H    -8.63350    1.84931    4.31815
       O    -9.42530    1.30733    4.10534
      H1    -9.41866    0.60382    4.75117
       H   -18.23819    7.45741    6.15376
       O   -18.73219    6.84510    6.76250
      H1   -18.67003    6.05302    6.26590
       H   -17.38724    0.03638    0.15854
       O   -17.12877    0.90169    0.45403
      H1   -16.30723    0.73218    0.96259
       H   -14.64812   -2.60000    2.72562
       O   -13.93707   -2.22978    2.09740
      H1   -14.25190   -1.44361    1.71682
       H   -12.19151   -0.62578    6.06390
       O   -12.17046   -0.93062    6.96974
      H1   -11.41998   -1.51651    7.08720
       H   -12.67662    6.34052    8.42360
       O   -13.48742    5.99015    8.08531
      H1   -13.35072    5.97145    7.14288
       H   -15.83985   -7.68914    8.04986
       O   -16.53115   -6.98689    7.87061
      H1   -16.64793   -6.60409    8.75353
       H   -14.52716    0.74678    0.96179
       O   -14.91938    0.61681    1.86769
      H1   -14.38424    1.23967    2.40617
       H   -16.74123    3.21249    2.12834
       O   -16.36123    3.56965    1.36365
      H1   -16.47706    2.84079    0.73333
       H   -14.39183    1.74164   10.92858
       O   -14.75776    1.88962   11.81644
      H1   -14.63230    2.88940   11.86975
       H   -15.94734    3.08237    7.49245
       O   -16.86245    2.86146    7.22620
      H1   -17.36437    3.53187    7.72939
       H   -11.59198    1.83070    2.76224
       O   -11.52532    2.61308    3.36998
      H1   -10.75652    2.18146    3.82588
       H   -18.45249   -2.84788    1.86477
       O   -17.90067   -3.62854    1.86888
      H1   -17.64621   -3.69404    2.78514
       H   -18.76477    1.63232    0.84474
       O   -19.41031    1.82969    1.57600
      H1   -19.04457    1.44922    2.36242
       H   -15.99748   -1.40896   -1.76922
       O   -16.17898   -0.52267   -2.11886
      H1   -15.46749    0.08125   -1.75445
       H   -18.55942    1.07940    4.51501
       O   -17.98733    0.64940    3.80037
      H1   -17.16586    0.45006    4.25829
       H   -16.97690    6.37633    7.50782
       O   -16.59187    5.63479    7.98487
      H1   -15.64561    5.75706    7.97650
       H   -12.64809   -7.41693    3.14708
       O   -13.09858   -6.67405    2.74084
      H1   -13.98483   -6.88874    3.07714
       H   -13.77946   -4.86420    6.12885
       O   -13.15894   -5.64067    5.87757
      H1   -13.83570   -6.26190    5.56447
       H   -16.00309    4.93938    4.04175
       O   -15.24085    5.47412    3.79820
      H1   -15.36525    5.43822    2.86170
       H   -12.93307   -1.09076    3.90300
       O   -12.68002   -0.26401    4.42576
      H1   -13.62944   -0.05087    4.68975
       H   -11.85537   -5.49150    3.24288
       O   -11.49768   -4.74918    3.79135
      H1   -12.02482   -4.88681    4.60724
       H   -18.47658   -0.98845   11.38209
       O   -18.84411   -1.81702   11.68245
      H1   -18.16771   -1.99305   12.34791
       H   -11.14905    4.21064    5.25485
       O   -11.41447    4.36669    6.16023
      H1   -10.99510    5.23069    6.28874
       H   -16.14256    1.07958    7.81894
       O   -16.15039    0.35608    8.48267
      H1   -15.24843    0.30105    8.80460
       H   -11.27249   -3.19910   10.21122
       O   -12.21637   -3.31397   10.26844
      H1   -12.44874   -2.71627   11.04698
       H   -19.45138    0.47657    8.43994
       O   -19.13652   -0.05225    7.69634
      H1   -19.91071   -0.59488    7.59830
       H   -14.35803   -0.79519   10.70398
       O   -13.84379   -0.33763   10.04251
      H1   -13.59816   -1.00753    9.43794
       H   -13.16007    4.57129    9.61582
       O   -13.19730    3.81757   10.17509
      H1   -13.06473    3.03278    9.59624
       H   -14.03510    7.62069    5.36613
       O   -13.52771    6.72986    5.18420
      H1   -14.25585    6.29455    4.73585
       H   -17.07458   -3.51794    4.64876
       O   -16.37706   -3.95573    4.15918
      H1   -16.19199   -4.77643    4.69162
       H   -15.14455   -2.69001    7.06107
       O   -14.19191   -3.06569    7.06281
      H1   -13.56744   -2.42305    7.31623
       H   -19.28644    4.67164    9.12672
       O   -18.94289    3.86965    8.65472
      H1   -19.25983    4.02119    7.73250
       H   -11.25267    5.92148    1.65293
       O   -12.19470    5.64719    1.45026
      H1   -12.03043    4.67835    1.24337
       H    -8.43555    0.31777    6.55810
       O    -8.58422   -0.43502    5.99066
      H1    -9.10372   -1.02801    6.55462
       H   -16.04319   -5.07306   10.07815
       O   -16.87469   -5.08037    9.62140
      H1   -17.44566   -4.97774   10.38905
       H   -17.49595    3.65312    5.65728
       O   -17.38736    3.88365    4.72191
      H1   -18.14806    4.29048    4.41009
       H   -16.03664   -1.35621    4.46293
       O   -15.70065   -0.60039    4.87224
      H1   -16.08541   -0.79033    5.76717

