180
frame 10 | Written by MDAnalysis XYZWriter (release 2.4.3)
       H    -2.32401   10.19971   -2.35706
       O    -2.26020    9.90143   -3.29647
      H1    -2.34167   10.72006   -3.75173
       H     6.36351   16.89600    2.06418
       O     6.55184   15.93466    2.08483
      H1     7.53415   15.96091    2.31138
       H     5.11581    8.50905   -6.16977
       O     4.26374    8.67342   -5.67848
      H1     3.58420    8.67722   -6.38220
       H     1.94440   10.53144    1.18589
       O     1.07386   10.11572    1.11373
      H1     1.09260    9.76152    0.18740
       H     3.81976   12.27460   -2.93521
       O     4.65800   11.70118   -3.04549
      H1     4.65593   11.52215   -4.02127
       H     8.47231   16.18270    0.79866
       O     8.55996   16.45526   -0.18550
      H1     7.66499   16.87388   -0.25378
       H     9.67116   11.58315    0.84970
       O     8.99399   11.85685    0.29064
      H1     9.11441   12.78282    0.07685
       H     0.58031   15.69332   -1.92186
       O     1.46316   15.99455   -1.79101
      H1     1.41076   16.99956   -1.79846
       H     0.76722    6.44677   -3.07396
       O     1.60828    6.11038   -3.42411
      H1     1.90522    5.50372   -2.71530
       H     3.18154   14.11178    1.30838
       O     3.00941   13.62708    2.14668
      H1     3.87541   13.25183    2.41298
       H     6.71229   18.92823    1.33377
       O     5.99491   18.52386    1.79743
      H1     5.50566   18.09845    1.03356
       H     3.33335    7.49019    2.54881
       O     3.60919    8.19675    3.16958
      H1     2.75102    8.45562    3.53532
       H    -1.36328   10.05671    1.70375
       O    -1.53524   10.19784    2.62611
      H1    -0.91305    9.67586    3.11877
       H    -0.12951   12.97786    4.17531
       O     0.04611   12.84893    5.14005
      H1    -0.83677   12.41176    5.36398
       H     2.66198   11.75311   -1.43607
       O     1.84372   12.17056   -1.82943
      H1     1.68553   11.47105   -2.55611
       H     7.97028    5.92496    0.41187
       O     7.88232    4.98973    0.77329
      H1     7.20309    4.69863    0.16595
       H     5.70466   10.25349   -0.78983
       O     5.99583    9.79894   -1.65053
      H1     5.75480   10.50892   -2.24576
       H     8.45763   14.21949   -2.43661
       O     8.02793   15.08367   -2.41782
      H1     8.36543   15.56860   -1.64750
       H     4.33600   11.07502    0.86812
       O     3.43008   11.33394    0.57671
      H1     3.38523   12.25586    0.95467
       H    -1.11136    7.85492   -0.88876
       O    -1.19311    8.26357   -0.03826
      H1    -2.11562    7.87893    0.08348
       H     0.74060   12.26363   -0.09347
       O    -0.07773   12.64458    0.19702
      H1     0.01323   12.60515    1.11627
       H    -3.36477   11.93723   -0.00719
       O    -3.90662   12.54480   -0.49624
      H1    -4.16165   13.17175    0.19966
       H    -1.05317    5.88246    1.40390
       O    -1.98962    5.61923    1.51073
      H1    -2.08915    6.01399    2.40345
       H    -1.18887   15.51466    5.26576
       O    -0.61052   15.16003    5.95721
      H1    -0.18876   14.30590    5.55508
       H    -0.69688   13.42149   -1.90778
       O    -1.12923   14.16120   -2.29279
      H1    -0.83620   14.18103   -3.18974
       H     2.65604   13.15897   -5.44427
       O     2.45721   12.68759   -6.26405
      H1     1.52629   12.48324   -6.12401
       H     4.69097    7.22546   -4.56736
       O     4.82950    6.58905   -3.79487
      H1     5.75374    6.60547   -3.56190
       H     5.03282    9.34665    7.59128
       O     4.38326    9.94347    7.34556
      H1     4.65568   10.07812    6.42902
       H     3.23394   17.36448    1.79761
       O     2.98912   17.50247    0.86328
      H1     3.14630   16.61842    0.49253
       H     7.91080    6.86564    3.67088
       O     7.26696    6.12729    3.53342
      H1     7.69108    5.52066    2.91806
       H     0.53177    8.76848    2.29223
       O     0.39852    8.38069    3.17958
      H1     0.15610    7.51471    2.83308
       H     8.76653   11.61164   -1.39616
       O     8.78818   12.07535   -2.27812
      H1     8.40917   11.40028   -2.82929
       H     3.74071    6.33143    0.39206
       O     3.35571    5.94189    1.17104
      H1     3.72552    5.05475    1.24534
       H     3.57751   16.32646    5.26490
       O     3.96803   16.20629    6.12754
      H1     3.37703   16.82700    6.53682
       H    -1.10265    7.69151   -3.45934
       O    -0.94018    6.97445   -2.82364
      H1    -1.57557    6.28100   -3.08702
       H     4.34658   14.76210   -3.08779
       O     5.05625   15.04808   -2.43552
      H1     5.64856   14.31310   -2.39188
       H     1.03145    4.95531    2.67026
       O     0.85799    5.85388    2.32441
      H1     1.70848    6.03199    1.87688
       H     8.41038   13.17325    4.24551
       O     7.93007   13.94885    4.13783
      H1     7.23932   13.71448    3.53636
       H     4.16750   10.64005    4.36830
       O     4.97260   10.74827    4.87441
      H1     5.70101   10.44064    4.31430
       H    -1.84418    9.69502   -0.29510
       O    -2.00047   10.62043   -0.56847
      H1    -1.28139   11.16812   -0.18673
       H     2.69889   15.09206   -0.81232
       O     3.47739   15.05269   -0.19995
      H1     4.15316   14.95358   -0.83577
       H     6.83958   11.24606    0.97898
       O     5.94840   10.84052    1.13009
      H1     6.37121   10.01648    1.52113
       H     8.71466    7.66657   -1.67138
       O     7.95258    7.71659   -1.12597
      H1     7.67625    8.63580   -1.30457
       H     4.75907    8.29370   -1.35574
       O     4.22224    7.50982   -1.02350
      H1     4.23170    7.00035   -1.88339
       H    -2.25728   12.81572    2.62724
       O    -2.33047   13.52138    1.91759
      H1    -1.47455   13.92038    1.76367
       H     6.55708   14.65150    0.43650
       O     6.73493   13.80264    0.00118
      H1     7.20144   14.14877   -0.80509
       H     4.88204   16.24307    3.41256
       O     3.93238   16.08575    3.45346
      H1     3.86795   15.20684    3.04745
       H     1.41525    8.09666   -1.54696
       O     1.93674    8.90331   -1.42884
      H1     2.78291    8.49870   -1.14338
       H     2.18179    6.53496    5.73434
       O     1.43867    6.21266    5.20244
      H1     1.76468    6.43017    4.30408
       H     6.47068    7.68482    2.64880
       O     6.24395    8.64045    2.72821
      H1     5.31649    8.50202    2.83717
       H     1.45535   10.23021    5.33652
       O     1.92096   11.01187    5.64072
      H1     1.21687   11.73186    5.57253
       H     2.34422   14.47620   -3.35278
       O     3.12465   14.15130   -3.89518
      H1     3.34070   14.85724   -4.55544
       H     4.72954    4.77257    5.64178
       O     5.10317    5.73382    5.68184
      H1     5.31817    5.82432    4.74320
       H     0.20428   15.24534    3.05781
       O     0.36851   14.31617    2.80094
      H1     1.29557   14.19705    2.68198
       H     1.63642    9.70829   -2.88993
       O     1.45106    9.99920   -3.79681
      H1     1.90404    9.30229   -4.25203
       H     3.84262   11.55084   -5.87918
       O     4.67349   11.11868   -5.63841
      H1     4.35700   10.24072   -5.49319
       H     3.58781   17.68464   -1.63535
       O     3.86787   18.15245   -2.47029
      H1     4.06091   19.06447   -2.19937
       H    -0.69294   16.85816    2.29649
       O    -0.69086   16.75227    3.24600
      H1    -1.63543   17.02701    3.54059
       H     5.70836   11.90623    2.49470
       O     5.50883   12.70143    3.09677
      H1     5.45952   12.21366    4.00997
       H     6.67248   17.89733   -1.60021
       O     6.15023   17.49326   -0.88281
      H1     5.67140   16.86968   -1.51869

