180
frame 9 | Written by MDAnalysis XYZWriter (release 2.4.3)
       H    15.89260   10.66696   -7.23619
       O    15.65802   11.62452   -7.27270
      H1    15.02328   11.68752   -8.04766
       H    15.13960   14.33045  -14.44962
       O    14.60642   14.77691  -13.75234
      H1    13.81456   14.96664  -14.19561
       H    15.09025   18.34064   -6.95848
       O    15.62436   18.24175   -7.75905
      H1    16.19312   17.45871   -7.53431
       H    19.90608   15.80953  -16.33555
       O    19.07201   16.12234  -15.96589
      H1    18.47073   15.61746  -16.60385
       H    18.98192   11.87195  -15.77716
       O    19.52049   12.51908  -15.25420
      H1    19.94772   12.99804  -15.95799
       H    15.45166    8.30531   -8.83003
       O    16.34738    7.97263   -8.68585
      H1    16.69788    7.69530   -9.55184
       H    16.14791   16.96415  -16.42368
       O    16.38415   17.75658  -15.90148
      H1    15.50802   18.19489  -15.90152
       H    15.86913   10.50620   -2.58216
       O    16.32008    9.68309   -2.49572
      H1    16.72107    9.69535   -3.36644
       H    12.23755    8.85842  -13.38498
       O    11.60718    8.52700  -14.07139
      H1    11.93870    7.67146  -14.43404
       H    18.99743   10.27885   -9.51257
       O    19.23320   10.63671  -10.37833
      H1    18.55923   11.31691  -10.57042
       H    17.93942   14.35508  -18.30251
       O    17.49103   14.99286  -17.77996
      H1    16.84579   14.47329  -17.28113
       H    15.41539    8.28482   -5.55606
       O    14.88967    9.03484   -5.92032
      H1    14.54624    9.48851   -5.09902
       H    12.65492   14.72852  -17.26693
       O    12.98562   14.48874  -16.37998
      H1    13.17098   13.54451  -16.39528
       H    17.25154    9.66650  -15.73143
       O    17.23084   10.45766  -15.13838
      H1    17.69989   10.04678  -14.39739
       H    11.69012    5.15003   -8.31725
       O    12.40078    5.77956   -8.52926
      H1    13.13222    5.37214   -7.95289
       H    16.87251    6.54980  -15.09593
       O    17.79992    6.54994  -14.88788
      H1    17.84136    7.22893  -14.16082
       H    18.38640   17.79270  -13.98553
       O    18.38441   17.85545  -13.00878
      H1    17.57417   17.39936  -12.97336
       H    11.07433   11.54222   -9.08365
       O    10.52790   11.99652   -8.42568
      H1    11.08635   12.80141   -8.30553
       H    16.46531   12.55101  -15.80497
       O    16.06468   13.42258  -15.85461
      H1    15.26745   13.25301  -16.42326
       H    15.68006   11.05864  -14.60395
       O    14.84902   11.10989  -14.09815
      H1    15.18696   11.70481  -13.36749
       H    15.51404    5.59359  -12.63623
       O    14.62726    5.93812  -12.35987
      H1    14.15148    5.75588  -13.22825
       H    16.17381    3.37198  -13.20822
       O    16.80770    4.03336  -13.08038
      H1    17.54583    3.84291  -13.74132
       H    15.04514    4.65387   -6.93858
       O    14.56719    5.53600   -6.72929
      H1    15.11291    6.16902   -7.22942
       H    14.41469   13.02789   -2.48116
       O    14.94027   12.30404   -2.82752
      H1    14.59073   12.26746   -3.73176
       H    19.36616   16.12291   -4.24646
       O    18.58490   16.65178   -4.26997
      H1    19.06283   17.44510   -4.54385
       H    13.37028    8.65360   -6.71554
       O    12.82100    8.47654   -7.50834
      H1    12.54378    7.59898   -7.18567
       H    17.72149    9.16560  -18.28149
       O    17.23706    8.52987  -17.64422
      H1    17.97303    7.89607  -17.43717
       H    13.45925   11.26818  -17.39760
       O    14.04555   11.98856  -17.12795
      H1    14.17930   12.31633  -18.04908
       H    17.40073   13.56914   -4.44929
       O    17.25291   13.59762   -3.47496
      H1    16.33633   13.29596   -3.39793
       H    15.45175   16.35440  -12.87395
       O    15.82378   16.99611  -12.31851
      H1    15.71121   17.80715  -12.87047
       H    17.01296   13.30407   -6.76202
       O    17.62547   13.63287   -6.12010
      H1    17.61394   14.53472   -6.53143
       H    15.92769   12.83550  -11.49851
       O    15.06801   12.76387  -11.91714
      H1    14.91732   13.51477  -12.46788
       H    13.53920    9.01312  -10.68569
       O    14.07433    8.99970   -9.86397
      H1    13.50064    8.72732   -9.20689
       H    18.80627    6.19156  -16.37098
       O    19.05784    6.39348  -17.33456
      H1    19.02858    5.43678  -17.69770
       H    18.12224   15.59797  -10.19658
       O    17.15135   15.54687  -10.01134
      H1    16.74419   16.43048  -10.24827
       H    18.99244   12.22200   -6.59664
       O    19.59111   11.49251   -6.63467
      H1    19.04849   10.82089   -7.14260
       H    15.21900    8.44744  -14.40583
       O    15.09003    7.67379  -14.96603
      H1    14.92638    8.01693  -15.84404
       H    18.67657    8.39343  -12.19439
       O    18.13666    8.62409  -12.97622
      H1    17.30322    8.51754  -12.48665
       H    10.78125   12.11106  -11.67989
       O    11.70889   12.37643  -11.88893
      H1    11.71254   13.32140  -11.63261
       H    11.31647   14.80277  -10.08869
       O    11.39575   15.13815  -11.00479
      H1    10.53053   14.81229  -11.33438
       H    17.68552   16.80276   -6.22983
       O    17.10522   16.25395   -6.75795
      H1    16.41458   15.98468   -6.12189
       H    18.01321   11.60961   -1.31023
       O    18.71112   11.98580   -1.89720
      H1    18.13102   12.39526   -2.55407
       H    15.42622    8.65525  -11.15878
       O    15.74166    8.40818  -12.05035
      H1    15.24034    7.55846  -12.18787
       H    13.81110   10.30829  -12.79900
       O    13.11571    9.95112  -12.17666
      H1    12.54113   10.75234  -12.05659
       H    14.25704   14.54719   -5.38877
       O    14.61186   15.32784   -5.83176
      H1    14.13019   15.55487   -6.69434
       H    19.15211   10.76518   -3.49711
       O    18.71651   10.29477   -4.29494
      H1    19.37636   10.56482   -4.96307
       H    11.90530   16.03277   -7.85039
       O    12.61879   16.62575   -7.50791
      H1    12.93320   16.96200   -8.38767
       H    14.11461   12.37315  -10.01324
       O    13.88728   11.83547   -9.24476
      H1    13.88674   10.94807   -9.68950
       H    18.91128    3.81621  -14.97628
       O    19.14061    4.45014  -14.23710
      H1    18.63977    5.26204  -14.48554
       H    17.80761    8.93226   -8.15236
       O    18.58631    9.35491   -7.98111
      H1    19.31645    8.68865   -8.02359
       H    11.28416    9.70926   -6.93969
       O    10.48244    9.99390   -6.47654
      H1    10.50140   10.91441   -6.71049
       H    15.82755    4.29625  -10.18958
       O    16.74814    4.01506  -10.41788
      H1    16.81475    3.93717  -11.37664
       H    12.84556   12.76258   -5.19529
       O    13.54218   12.06970   -5.22321
      H1    14.07437   12.16600   -6.01301
       H    17.15323   13.26411   -9.91973
       O    17.35523   12.55240  -10.56056
      H1    18.10372   12.96157  -11.00507
       H    18.80823    7.42594   -2.48813
       O    19.24838    7.62098   -3.38476
      H1    19.13930    8.59244   -3.46870
       H    18.67955    6.36885   -9.21908
       O    18.18777    6.40613  -10.13194
      H1    17.67397    5.54012  -10.03673
       H    18.36605   19.06578   -6.99112
       O    19.06544   18.44586   -6.93560
      H1    19.36843   18.39959   -7.84955
       H    16.42688    6.29950   -3.96769
       O    16.26466    6.90530   -4.71661
      H1    16.99170    7.54283   -4.53561
       H    14.62912   17.33897  -10.84482
       O    14.19071   17.53576  -10.03252
      H1    14.80005   18.08871   -9.52763
       H    13.33026   12.06284  -14.43536
       O    12.50580   12.59483  -14.43388
      H1    12.32950   12.61649  -13.49730

