180
frame 8 | Written by MDAnalysis XYZWriter (release 2.4.3)
       H    -9.16840   10.78262  -12.12144
       O    -9.76689   10.55745  -12.85522
      H1    -9.71855   11.31053  -13.48456
       H   -12.81030    8.99178  -10.99812
       O   -13.32833    8.66061  -10.27991
      H1   -12.66709    8.37619   -9.66966
       H   -17.98796   12.33343   -6.22017
       O   -17.31650   12.26524   -6.94742
      H1   -16.96135   13.17077   -7.00274
       H   -16.45202   16.08210   -4.78999
       O   -16.25164   15.26441   -4.34313
      H1   -16.62406   15.34620   -3.46676
       H   -11.48892    9.91737  -12.70190
       O   -12.39963    9.70527  -12.82767
      H1   -12.28131    8.81879  -13.13358
       H   -17.96885   14.26665   -9.25730
       O   -18.76942   14.75279   -9.11596
      H1   -18.39001   15.64132   -9.17169
       H   -14.69344   15.49594  -12.38187
       O   -13.86192   15.92209  -11.99771
      H1   -14.23353   16.80419  -11.65501
       H   -14.39442   18.93689   -3.21064
       O   -13.72801   18.32347   -3.60350
      H1   -12.98826   18.35858   -2.96472
       H   -13.97831   19.98715   -8.12977
       O   -14.76693   19.41334   -8.07656
      H1   -14.99176   19.28633   -8.98347
       H   -13.01301   13.91672  -12.04149
       O   -13.10444   12.96043  -12.03294
      H1   -12.60272   12.72000  -12.83351
       H   -15.52310   18.83686  -10.90374
       O   -14.73870   18.26288  -10.76917
      H1   -15.04172   17.65405  -10.01912
       H   -12.86003   18.30262  -11.02465
       O   -11.89304   18.30479  -11.08152
      H1   -11.79583   18.86376  -11.91423
       H   -12.82483    7.05457   -5.79862
       O   -12.14985    6.42246   -6.00787
      H1   -12.47613    5.95416   -6.77230
       H   -14.67373   12.31623   -6.20329
       O   -14.57914   12.89116   -5.39976
      H1   -15.48461   12.97660   -5.06140
       H   -13.93615   14.43925   -6.23647
       O   -13.97371   15.41065   -6.00484
      H1   -14.82646   15.30281   -5.51724
       H    -9.54649    9.46519   -7.87497
       O    -9.26276    9.35462   -6.94880
      H1    -9.60836    8.44010   -6.78604
       H   -17.45104   16.40153   -6.48776
       O   -16.98320   17.22159   -6.29902
      H1   -17.43013   17.65981   -5.56396
       H   -14.65648    6.98826   -7.60550
       O   -15.02347    7.59462   -6.97355
      H1   -15.62997    8.01165   -7.59204
       H   -11.53901   12.35077   -2.29515
       O   -11.10911   12.58081   -1.44337
      H1   -11.62366   12.21592   -0.74437
       H   -11.07263   10.02882   -6.71026
       O   -11.87143   10.16713   -6.10737
      H1   -12.57419   10.36123   -6.78000
       H   -15.21196   10.74516  -14.96915
       O   -16.14460   10.49435  -15.17877
      H1   -16.57778   10.81570  -14.34719
       H    -8.83322   14.70412   -6.98395
       O    -8.42090   13.92166   -6.57114
      H1    -8.73438   13.73840   -5.67565
       H   -16.29183   18.07771  -13.28132
       O   -16.00215   18.47110  -14.10094
      H1   -15.07742   18.56555  -13.97269
       H   -17.01643    9.31458   -4.86939
       O   -16.22032    9.36096   -4.29178
      H1   -16.22309   10.23664   -3.95199
       H   -12.32914   12.40392  -10.64108
       O   -11.90839   11.85104   -9.90570
      H1   -10.98901   12.16631   -9.94340
       H    -9.33111   15.12622  -10.47739
       O    -9.28500   14.18309  -10.70911
      H1    -8.37349   13.87552  -10.53552
       H   -16.09293   11.71082   -2.56711
       O   -16.82899   12.04161   -3.16660
      H1   -17.55884   11.49753   -2.83242
       H   -10.92044   15.43559   -7.76757
       O    -9.98598   15.92240   -7.67103
      H1   -10.21723   16.66693   -7.05435
       H    -9.11530   14.05520  -12.97339
       O    -8.89046   13.69915  -13.82338
      H1    -7.97438   14.00735  -13.98222
       H   -13.13382   15.24657   -4.07943
       O   -12.20187   15.30401   -3.78116
      H1   -11.98769   16.19301   -4.06124
       H   -19.06589   14.58622   -7.33677
       O   -18.97764   14.66604   -6.34805
      H1   -19.77363   14.21417   -6.06359
       H   -12.11005   17.58426   -6.11562
       O   -11.57082   17.64058   -5.28203
      H1   -12.11522   18.28428   -4.81498
       H   -11.61799   16.19094  -14.00795
       O   -12.52443   16.06906  -14.32469
      H1   -13.00171   16.45239  -13.56781
       H    -8.48396   13.85021   -2.94819
       O    -8.91049   14.39238   -3.64657
      H1    -9.55884   13.76092   -3.94143
       H   -13.19381   13.02769  -15.33623
       O   -12.98537   13.83390  -15.96317
      H1   -13.13379   14.53558  -15.30498
       H   -13.21044   10.84117  -14.14454
       O   -13.39119   11.37442  -14.95715
      H1   -12.96658   10.88158  -15.75116
       H    -9.78498   16.65517   -9.41245
       O    -9.75876   16.76816  -10.35585
      H1   -10.60650   17.32899  -10.50683
       H    -9.29659   13.10104   -9.24277
       O    -9.49808   12.46036   -8.55262
      H1    -9.41098   12.99251   -7.73789
       H    -9.37567   10.70266   -5.01431
       O    -9.31788   11.34132   -4.31349
      H1    -9.45170   10.83266   -3.48583
       H   -13.97602   16.40022   -0.95441
       O   -14.26373   15.76775   -1.64331
      H1   -13.53288   15.86700   -2.30875
       H   -18.62269   16.68401  -12.46155
       O   -18.60157   17.36947  -11.80644
      H1   -19.33730   17.87798  -12.16365
       H   -10.93442   10.20602   -9.70228
       O   -10.37418    9.42871   -9.46217
      H1    -9.51342    9.71462   -9.86322
       H   -10.01651   17.49277  -13.35603
       O   -10.01112   16.54844  -13.07319
      H1   -10.18020   16.55382  -12.11301
       H   -14.87988   12.70499   -8.85699
       O   -14.78097   13.70893   -8.61586
      H1   -13.84494   13.64932   -8.34450
       H   -13.27750   11.59015   -3.90051
       O   -12.40619   11.38137   -3.49713
      H1   -11.99286   10.86341   -4.23705
       H   -11.74957   13.41686   -6.71137
       O   -12.03060   13.75929   -7.60802
      H1   -11.47460   13.13534   -8.12697
       H   -15.24621   15.62873   -8.67219
       O   -15.91600   16.32408   -8.84880
      H1   -15.86093   16.72491   -7.97059
       H   -18.51390   11.12194   -9.71146
       O   -17.98502   11.90226   -9.64310
      H1   -18.07147   12.12212   -8.69184
       H   -15.74249   10.99669  -11.67193
       O   -15.55494   11.64678  -12.36382
      H1   -14.82798   12.17627  -11.98789
       H   -16.94913   14.99880  -13.49431
       O   -16.00088   14.79565  -13.66392
      H1   -15.92888   13.83883  -13.50506
       H   -12.77886    9.05972   -4.96883
       O   -13.30873    8.44568   -4.37940
      H1   -14.19358    8.90015   -4.41463
       H   -13.91403   10.75689   -8.83600
       O   -14.48548   10.92882   -8.07116
      H1   -15.13053   10.28797   -8.22180
       H   -13.77827   17.96263   -7.47521
       O   -13.03229   17.34486   -7.56466
      H1   -13.27478   16.56468   -7.00351
       H   -18.08774   17.96761   -8.65421
       O   -18.90683   17.47978   -8.86752
      H1   -19.01461   17.60172   -9.83002
       H   -16.49708    8.91053  -11.62033
       O   -16.40756    7.94910  -11.64323
      H1   -17.34401    7.66050  -11.81353
       H   -17.70241   13.78234   -2.55081
       O   -18.01514   14.64876   -2.21954
      H1   -18.53776   14.28347   -1.52017
       H   -16.72615    8.25887   -9.35239
       O   -16.99343    8.59104   -8.53094
      H1   -17.69811    9.20234   -8.69083
       H    -7.21612   10.90623   -7.27382
       O    -6.65919   11.21884   -8.01776
      H1    -7.33201   11.79249   -8.41238
       H   -11.48680   14.17122   -4.89020
       O   -11.13101   13.34051   -5.21854
      H1   -11.64319   12.74963   -4.68630
       H    -8.89199   16.25310   -4.14788
       O    -8.84153   17.21363   -4.13949
      H1    -9.67009   17.38140   -4.65431

