180
frame 6 | Written by MDAnalysis XYZWriter (release 2.4.3)
       H     1.32302    3.70324   -8.73505
       O     1.13425    4.63982   -8.35158
      H1     1.18375    5.02680   -9.22014
       H     5.30590   -0.50929   -4.38191
       O     6.20609   -0.77921   -4.39878
      H1     6.27333   -1.64337   -3.98932
       H     6.95549    2.48954   -5.19450
       O     7.69588    2.71843   -4.53436
      H1     8.01751    1.80956   -4.28622
       H     2.93530    1.99493   -8.76351
       O     2.39525    2.32059   -9.47982
      H1     2.18605    1.45838   -9.88455
       H     0.19479   -3.48857   -7.05190
       O     0.67196   -3.23931   -6.24451
      H1     1.04931   -4.09461   -5.98168
       H     3.75613    2.99110  -11.27861
       O     4.61285    2.99624  -11.61126
      H1     4.83189    3.94105  -11.81676
       H     2.34859    1.18886  -12.91955
       O     3.22397    0.68892  -12.97232
      H1     3.73707    1.38994  -12.49115
       H     6.87048   -6.32172  -10.71307
       O     7.39430   -5.58091  -11.19364
      H1     7.26230   -5.78520  -12.12809
       H     9.80434   -3.36185  -13.28282
       O     9.13818   -2.71621  -12.96612
      H1     9.16373   -2.09034  -13.74494
       H     0.24530    5.22790  -11.52827
       O     1.15941    5.39779  -11.23355
      H1     1.64127    4.63820  -11.53592
       H     9.35832   -2.68399  -11.39154
       O     9.50681   -2.16882  -10.52463
      H1     8.84862   -2.61026   -9.97370
       H     3.98739   -3.07941  -10.94204
       O     3.61916   -3.83506  -10.42011
      H1     3.43645   -3.49082   -9.51245
       H     6.88185    1.35584  -12.80933
       O     6.96778    0.87513  -13.66251
      H1     6.02904    0.62515  -13.78355
       H     8.68605    0.15117  -14.07240
       O     9.40697   -0.34901  -14.53672
      H1    10.08496    0.32209  -14.63105
       H     1.37595   -2.93962  -12.52507
       O     1.02684   -2.71929  -11.69870
      H1     1.27039   -3.55543  -11.26347
       H     8.32405   -5.46362   -5.67829
       O     8.28258   -5.09863   -6.58375
      H1     9.20139   -4.70582   -6.62677
       H     0.55316    2.46793  -12.08147
       O     1.48092    2.66407  -12.35644
      H1     1.43306    3.20520  -13.21084
       H     5.71421   -4.41560   -6.71939
       O     5.99333   -3.82630   -5.96233
      H1     6.95284   -3.81709   -6.21021
       H     3.55071   -7.64326   -7.07827
       O     3.26403   -7.38544   -7.95983
      H1     3.41895   -8.27123   -8.40845
       H     2.30377   -0.50571   -9.66306
       O     1.53055   -0.46162  -10.21512
      H1     1.46134   -1.26842  -10.65950
       H     2.51846   -3.29122   -7.22763
       O     3.26141   -3.01765   -7.82230
      H1     4.00405   -3.22636   -7.23845
       H     2.18723   -5.30037  -10.70991
       O     1.33578   -5.76846  -10.79649
      H1     0.90926   -5.65045   -9.94846
       H     5.05223    1.70014  -17.43917
       O     4.43096    1.22573  -17.96918
      H1     3.89276    0.85856  -17.23871
       H    10.84138    1.75735  -10.71510
       O    11.17313    2.49775  -11.27359
      H1    11.84293    2.84596  -10.63702
       H     3.46750   -6.53330  -14.82085
       O     4.26388   -6.99856  -14.94485
      H1     4.04354   -7.37071  -15.80976
       H     9.84698   -0.47672  -10.29815
       O     9.89492    0.46531   -9.96542
      H1     9.04674    0.83348  -10.26044
       H     2.09954    0.76240  -16.15072
       O     2.84727    0.35543  -15.69494
      H1     2.71305    0.66723  -14.78721
       H     3.76059   -1.20904  -12.26163
       O     4.55330   -1.62151  -11.88433
      H1     5.03195   -1.95140  -12.69262
       H     9.19159   -6.93338  -15.13997
       O     8.37589   -6.58454  -15.53641
      H1     7.91642   -6.26138  -14.79014
       H     8.28067    5.45219  -14.46085
       O     7.48730    5.06150  -14.89852
      H1     7.05333    4.74045  -14.10478
       H     6.57238   -1.23609   -9.42116
       O     5.90120   -0.62823   -9.76556
      H1     5.55883   -1.05588  -10.56294
       H    -0.72106   -3.59952  -11.66165
       O    -1.43439   -3.97251  -12.15672
      H1    -1.01287   -4.73944  -12.50551
       H    12.24679    0.69543   -7.25758
       O    12.21101    0.27354   -6.35755
      H1    11.43830   -0.29159   -6.61625
       H     9.48216   -3.90449  -15.71243
       O     8.61341   -3.57984  -15.90820
      H1     8.05290   -4.09253  -15.28877
       H    10.51234   -6.02776   -9.32382
       O    10.33432   -6.74290   -8.70350
      H1     9.37196   -6.56831   -8.75535
       H     5.93753    5.61245   -9.32533
       O     6.41051    6.13257  -10.02862
      H1     7.27121    5.64664   -9.99890
       H    11.44456   -3.45923   -9.91079
       O    11.43008   -4.35816  -10.27260
      H1    11.01904   -4.28366  -11.16847
       H     5.62161    4.39829  -15.59133
       O     5.12345    3.58038  -15.59269
      H1     4.26278    3.88795  -15.31603
       H     4.56607    2.84316   -5.03757
       O     5.00430    2.99783   -5.90477
      H1     4.45669    3.71394   -6.28432
       H     9.31444    5.61219   -9.61223
       O     8.85763    5.43433  -10.46268
      H1     8.99933    6.16076  -11.10026
       H    -0.56087    1.76659   -8.20525
       O    -0.54926    0.83045   -8.00297
      H1     0.18607    0.53570   -8.58922
       H     6.54274   -3.39368   -4.30927
       O     6.74682   -3.06636   -3.43478
      H1     7.79224   -3.19567   -3.46807
       H     8.96746   -5.44559  -12.06178
       O     9.82656   -5.37227  -12.50630
      H1    10.03167   -6.33500  -12.62007
       H    11.80467   -3.52672   -7.24716
       O    10.78742   -3.59664   -7.13485
      H1    10.52190   -2.68315   -7.38561
       H     3.94969   -2.91075  -14.48039
       O     4.91103   -2.62146  -14.51617
      H1     4.92599   -2.27138  -15.39859
       H     7.25279   -3.91310   -9.89514
       O     7.57177   -3.33711   -9.17337
      H1     7.60904   -3.98757   -8.50221
       H     6.48274    2.34179  -15.84949
       O     6.93236    1.70323  -16.43443
      H1     7.04531    0.96878  -15.79615
       H     7.30091    2.09497  -10.60866
       O     7.37790    1.28843  -11.13663
      H1     6.68739    0.75094  -10.71967
       H     1.02125   -0.74765   -3.74720
       O     1.50086   -0.02403   -4.19959
      H1     1.44772   -0.20865   -5.15250
       H     5.32135    6.70612  -12.86587
       O     5.75063    5.87074  -12.65926
      H1     6.02638    5.92183  -11.72804
       H     6.26096   -3.82941  -14.22974
       O     6.95956   -4.38440  -13.92994
      H1     7.52137   -3.75945  -13.46150
       H     4.18350   -5.72193   -8.11510
       O     4.99777   -5.21400   -8.30025
      H1     4.45833   -4.51472   -8.73982
       H     5.67057   -6.77302   -9.00842
       O     5.96372   -7.46126   -9.66596
      H1     5.14292   -7.69851  -10.14553
       H     4.52045    0.10648   -8.39429
       O     3.57977    0.12249   -8.15622
      H1     3.57595   -0.59845   -7.47479
       H     5.75046    2.76530   -8.15898
       O     5.98924    3.17083   -9.02958
      H1     5.20201    3.11058   -9.65142
       H     9.95281   -0.73303   -8.33028
       O    10.09074   -0.68766   -7.39495
      H1     9.58678    0.15438   -7.15868
       H     4.94256   -7.73722  -13.31318
       O     5.47581   -8.07968  -12.56660
      H1     5.13592   -8.90043  -12.11462
       H     3.72424   -1.30840  -16.58485
       O     4.00617   -1.97441  -17.23465
      H1     3.49669   -2.80073  -17.03909
       H     8.20937   -0.78282  -16.02799
       O     7.82368   -1.15255  -16.81978
      H1     8.24052   -2.01925  -16.74143
       H     1.87712   -4.02942  -14.57404
       O     2.11642   -3.07975  -14.36381
      H1     1.47522   -2.59556  -14.85494

