180
frame 1 | Written by MDAnalysis XYZWriter (release 2.4.3)
       H     3.60940   17.07542  -17.64821
       O     3.90407   17.73180  -18.30110
      H1     3.34527   17.61118  -19.12173
       H     3.20197   10.80425  -12.04012
       O     3.57073   10.96958  -12.94214
      H1     4.47244   10.81431  -12.67926
       H    -2.50091   18.00048  -11.87109
       O    -3.13239   18.19386  -12.60315
      H1    -2.87199   17.58660  -13.26136
       H     6.61432   11.97542  -18.04271
       O     6.20937   11.41425  -18.76480
      H1     6.04956   12.12965  -19.45752
       H     7.90366   16.07854  -15.37993
       O     8.66892   16.02905  -14.78243
      H1     8.64565   16.95481  -14.42467
       H     9.94939   15.98001  -16.11440
       O    10.63712   15.85930  -16.75358
      H1    10.64424   14.87698  -16.79763
       H    -1.58544   16.54804  -14.89292
       O    -0.69422   16.89893  -14.80318
      H1    -0.30260   16.24277  -14.16611
       H    -3.82533   17.21153  -19.50710
       O    -4.79066   17.05511  -19.33280
      H1    -4.90539   17.50419  -18.41977
       H     7.05002   18.82288  -13.17363
       O     6.37891   18.68243  -12.52236
      H1     6.04734   19.55536  -12.47800
       H    -8.58307   18.54160  -19.11680
       O    -9.27672   19.25556  -19.32939
      H1   -10.13513   18.71053  -19.32797
       H    -4.03866   18.39451  -16.98829
       O    -4.83066   17.87452  -16.71666
      H1    -5.23802   18.54295  -16.14274
       H     7.92330   16.03345  -19.82955
       O     7.47401   16.53323  -19.17214
      H1     8.20903   17.03029  -18.68424
       H     1.93102   16.34979  -12.15018
       O     1.64208   17.15197  -11.59618
      H1     1.70116   17.89590  -12.21766
       H    -1.73086   17.97630  -17.64159
       O    -2.47432   18.58755  -17.63508
      H1    -2.03775   19.36609  -17.25074
       H    -5.93091   14.68269  -12.96735
       O    -4.95328   14.56770  -12.85221
      H1    -4.80594   13.79937  -13.39686
       H     7.12730   12.74573  -14.93381
       O     7.57146   13.06904  -15.70994
      H1     8.45801   13.35901  -15.51740
       H     1.12103   13.81365  -16.51465
       O     0.92501   14.71181  -16.55997
      H1     1.66134   15.18642  -16.17713
       H    -2.79827   10.26842  -17.76787
       O    -2.53991   10.15005  -16.87655
      H1    -3.36716   10.32190  -16.39795
       H     2.18597   12.26205  -17.60383
       O     2.01752   11.97481  -16.73329
      H1     1.41813   11.21733  -16.81046
       H    -5.11895   10.28919  -16.95372
       O    -5.25785   11.20053  -16.80995
      H1    -6.16237   11.17315  -16.59512
       H     2.05982   12.01328  -13.77256
       O     1.20923   12.24335  -14.15472
      H1     1.42286   12.20447  -15.05849
       H    -5.19791   12.30542  -19.22664
       O    -5.95261   12.84894  -19.47772
      H1    -6.70040   12.24593  -19.54852
       H    -3.27412   18.50348   -8.44394
       O    -2.61106   17.78845   -8.36070
      H1    -2.96888   17.03701   -8.77982
       H     2.65658   19.27815  -17.62970
       O     1.81510   19.70960  -17.42915
      H1     1.16960   18.97195  -17.46387
       H    -8.87435   19.34008  -15.62746
       O    -7.87487   19.29147  -15.38104
      H1    -7.86645   18.47411  -14.92014
       H     5.00979   17.23147   -8.26883
       O     4.50549   18.05161   -8.26990
      H1     3.66257   17.71911   -8.63805
       H     1.83253    9.38093  -15.13572
       O     2.29792    8.98855  -14.44705
      H1     2.68363    9.83800  -14.04953
       H     9.00667   19.32392  -14.28144
       O     8.24500   18.98350  -14.75950
      H1     8.41512   19.36885  -15.64978
       H    -7.41643   17.33027  -17.43191
       O    -8.18676   17.07734  -17.96010
      H1    -8.19678   16.11513  -17.76522
       H    -4.92310   16.36388  -10.40063
       O    -4.47653   15.69221   -9.82218
      H1    -4.83945   14.81204   -9.98998
       H     0.89679   14.45130  -18.61081
       O     0.25587   14.58599  -19.35145
      H1    -0.57419   14.67195  -18.93860
       H    -4.15439   12.53042  -15.63743
       O    -3.63813   13.33752  -15.38535
      H1    -3.96971   13.98209  -15.97539
       H    10.10098   16.93019  -18.08055
       O     9.70480   17.74273  -18.51204
      H1     9.86038   17.52785  -19.44973
       H     0.49936   14.39096  -12.09653
       O     1.11599   14.65206  -12.80904
      H1     1.12794   13.88435  -13.41572
       H    -0.03095   17.38536  -11.13480
       O    -0.99826   17.56009  -10.87808
      H1    -1.05038   17.50388   -9.92596
       H     0.16801   10.99127  -13.48207
       O     0.03088   10.18531  -12.98160
      H1    -0.92105   10.21207  -12.83270
       H     0.36683   11.81769  -10.53353
       O    -0.09433   12.65590  -10.33743
      H1    -1.02208   12.48428  -10.65009
       H    -6.88657   14.06492  -17.44056
       O    -7.85612   14.13881  -17.54998
      H1    -8.06872   13.70595  -18.40814
       H     4.95513   14.20748  -17.64717
       O     4.80945   13.52337  -16.95901
      H1     4.43325   12.78916  -17.41741
       H     2.59732   18.69028  -14.09258
       O     2.06039   19.14964  -13.43328
      H1     2.73055   19.54663  -12.78924
       H     8.49856   15.01080  -13.17140
       O     8.31461   14.39844  -12.47225
      H1     7.36222   14.51388  -12.21541
       H     3.72561   15.29214  -15.17347
       O     3.05683   15.91654  -15.54048
      H1     3.68296   16.65627  -15.70329
       H    -3.28878   13.67810  -11.19530
       O    -2.78820   12.90650  -11.04477
      H1    -3.42823   12.28962  -10.66462
       H     0.39813    9.46880  -17.16795
       O     0.23055   10.03349  -16.41188
      H1    -0.71649   10.06221  -16.49362
       H     5.26256   17.82886  -15.17299
       O     4.41552   18.25099  -14.98875
      H1     4.66037   19.16074  -15.21450
       H     6.13166   17.24755  -10.20682
       O     7.07006   17.58799  -10.20942
      H1     6.98022   18.14919  -11.08159
       H     5.39905   13.84172  -12.17186
       O     5.77062   14.37526  -11.43020
      H1     5.15202   15.13243  -11.42069
       H    -7.01902   17.28579  -13.15844
       O    -7.56419   17.00914  -13.90323
      H1    -8.41540   17.04875  -13.50379
       H     2.30286   12.94691   -8.65051
       O     3.16543   12.87171   -9.11689
      H1     3.07132   13.36863   -9.94184
       H    -4.16405   16.13865  -14.07756
       O    -3.56460   16.53142  -14.71804
      H1    -4.10939   16.97007  -15.38767
       H    -3.06476   15.14791  -17.78667
       O    -2.09200   14.94695  -17.84957
      H1    -1.85031   14.62388  -16.94727
       H    -5.14439   15.78452  -18.20099
       O    -5.09588   14.92863  -17.75830
      H1    -5.51952   14.33337  -18.43611
       H     5.49354    8.44272  -18.03058
       O     4.67052    8.96548  -18.02996
      H1     5.04225    9.85977  -18.27003
       H     6.64735   16.36396  -17.62146
       O     6.60788   16.16349  -16.65143
      H1     6.59296   15.17327  -16.71383
       H     3.66492   17.21902  -11.85192
       O     4.50752   16.88099  -11.48323
      H1     5.07016   17.28149  -12.21837
       H    -0.07881   16.72583  -18.33998
       O     0.06188   17.46167  -17.70750
      H1     0.20678   16.98485  -16.87952
       H    -5.88727   18.63551  -11.29770
       O    -5.76187   17.77934  -11.80587
      H1    -4.80457   17.80320  -12.06623
       H     1.30283   16.82920   -8.53893
       O     1.79085   17.58203   -8.87734
      H1     1.83780   17.36395   -9.78284
       H    10.99116   18.72767  -17.53244
       O    11.59250   19.26243  -16.92406
      H1    12.40939   19.08236  -17.42068
       H     4.28354   12.80622  -13.88136
       O     4.76452   13.62888  -13.99944
      H1     5.25423   13.39365  -14.80633

