180
frame 39 | Written by MDAnalysis XYZWriter (release 2.4.3)
       H     1.90160  -10.94458   18.17937
       O     2.63057  -10.53303   17.68611
      H1     3.13058  -10.19806   18.45380
       H    -4.05973  -11.45350   18.68730
       O    -4.22722  -12.37290   18.60576
      H1    -4.78301  -12.26981   17.84084
       H    -3.12536   -5.93356   18.70335
       O    -3.03210   -6.08721   19.61493
      H1    -3.56645   -5.33890   19.95508
       H     0.15855   -4.86358   13.91878
       O     0.14011   -4.34939   14.71175
      H1    -0.24276   -3.52929   14.38132
       H    -2.80900   -7.71685   10.77337
       O    -1.91401   -7.27190   10.66772
      H1    -1.53412   -7.82686   10.00745
       H    -5.91725   -8.42526   13.05060
       O    -6.79008   -8.63828   13.36732
      H1    -6.66254   -9.59693   13.04888
       H     0.03539  -10.18711   13.68477
       O    -0.60106  -10.92036   13.48542
      H1    -0.54003  -11.48555   14.30791
       H    -8.25181   -6.97383    9.66405
       O    -8.11340   -7.87339    9.85006
      H1    -8.54062   -7.81456   10.78708
       H   -13.05447   -6.97843   14.84935
       O   -12.56789   -6.58530   15.60823
      H1   -11.70017   -6.41347   15.23053
       H    -5.84141  -11.40358   11.57157
       O    -6.33133  -11.45022   12.44800
      H1    -7.20614  -11.32946   12.05668
       H    -8.18646   -9.01443   18.42082
       O    -8.31530   -9.25971   19.35729
      H1    -8.85630  -10.07364   19.41773
       H    -8.18069   -7.87121   12.56655
       O    -9.00276   -7.44108   12.23575
      H1    -9.57101   -8.06589   12.74093
       H    -7.35172   -1.55949   13.53003
       O    -6.89220   -2.30320   13.96206
      H1    -6.30624   -1.82735   14.53143
       H    -2.77620   -6.48660   16.50297
       O    -3.13658   -5.72243   16.96888
      H1    -4.05683   -5.62992   16.58476
       H    -4.62493   -4.69377   12.25416
       O    -3.98603   -4.87525   12.93472
      H1    -4.17538   -4.26918   13.66088
       H    -3.21748  -10.14483   14.37697
       O    -2.62397   -9.39175   14.28473
      H1    -1.74640   -9.78117   13.96584
       H     2.68742   -6.30794   15.95222
       O     2.26796   -7.14957   16.15803
      H1     2.24674   -7.54128   15.27597
       H    -0.19263   -5.61915   16.96826
       O     0.01822   -6.46765   17.42531
      H1     0.84240   -6.67361   16.92902
       H   -11.19778   -0.53294   19.07516
       O   -11.31935   -0.06761   18.23805
      H1   -10.92036   -0.65989   17.59027
       H    -7.00230   -4.02683   19.54461
       O    -7.65392   -4.43254   18.97680
      H1    -7.16267   -4.91528   18.34239
       H    -4.98367   -5.39025   14.26075
       O    -5.39242   -5.81633   15.07069
      H1    -6.10909   -5.17641   15.23074
       H   -10.31497  -11.88261   17.47034
       O   -10.76323  -12.01545   16.60662
      H1   -10.00563  -12.38489   16.16812
       H    -3.88636   -8.51970   12.55302
       O    -4.57204   -8.03865   12.08988
      H1    -4.52289   -7.11576   12.28355
       H   -10.16279  -10.12662   12.83423
       O   -10.83885   -9.45398   13.11605
      H1   -10.74831   -9.48934   14.07816
       H    -7.84880   -8.15521   16.19657
       O    -8.68633   -7.95926   16.70626
      H1    -9.20959   -7.48752   16.11391
       H    -9.31242   -6.47175   13.71592
       O    -9.66373   -6.08286   14.52293
      H1    -9.95530   -5.17406   14.26492
       H    -8.63293   -3.81052   11.14255
       O    -8.40481   -3.06095   11.69608
      H1    -7.56436   -2.75932   11.30439
       H    -7.59836   -2.70155   17.63478
       O    -7.59024   -1.81985   17.21905
      H1    -8.45404   -1.77696   16.79767
       H    -0.90538   -5.48518   12.04368
       O    -0.10168   -5.81525   12.43601
      H1    -0.38645   -6.69780   12.68240
       H    -5.47134  -13.32721   16.27412
       O    -5.87246  -12.47848   16.53409
      H1    -5.44916  -11.82049   15.91342
       H    -2.79587  -13.44741   18.10194
       O    -2.33421  -14.30230   17.83049
      H1    -1.68448  -14.29494   18.58998
       H    -9.42398  -11.78171   11.56237
       O    -8.88873  -10.98828   11.72641
      H1    -9.26389  -10.54369   10.93158
       H     1.84222   -9.84025   14.18655
       O     1.44257   -8.93482   13.87593
      H1     2.12984   -8.66472   13.23676
       H   -13.26322   -7.59594   17.14437
       O   -13.19471   -8.05978   17.98229
      H1   -13.05323   -9.00365   17.68920
       H    -2.25171  -10.57700   10.52763
       O    -2.49685  -10.61799   11.48422
      H1    -1.66163  -10.75799   11.92526
       H    -5.20316  -11.78014   14.08158
       O    -4.44080  -11.43512   14.66887
      H1    -3.93715  -12.26158   14.83572
       H    -9.80237   -3.51210   12.79434
       O   -10.52405   -4.02982   13.05807
      H1   -11.12386   -3.48566   13.54645
       H    -8.36390   -0.23276   18.92579
       O    -8.01915    0.50828   19.40261
      H1    -7.44144    0.19339   20.07912
       H    -1.61545  -13.44694   16.26115
       O    -1.12068  -12.89124   15.63649
      H1    -0.66097  -12.25294   16.22336
       H    -6.02677   -7.51315   15.72137
       O    -6.05117   -8.48256   15.87479
      H1    -6.15484   -8.77268   14.93014
       H    -8.51991   -4.98965   15.11387
       O    -7.84420   -4.42218   15.53091
      H1    -7.86169   -3.63928   14.96151
       H    -4.63396   -7.04028   18.59171
       O    -5.55702   -6.90890   18.34471
      H1    -5.71522   -7.49049   17.58543
       H   -11.06055   -2.26979   15.82071
       O   -10.40569   -2.03960   16.49636
      H1   -10.54185   -2.75856   17.12880
       H    -0.43972   -1.03747   16.99891
       O    -1.38856   -1.36413   16.91362
      H1    -1.46148   -1.41159   15.91994
       H    -2.76984   -2.97617   14.82818
       O    -3.40888   -3.28201   15.44870
      H1    -3.06788   -4.02556   15.99794
       H    -3.06561   -9.70350   19.33317
       O    -3.85538   -9.51653   18.80832
      H1    -3.55301   -8.91079   18.13817
       H    -2.37244   -8.66406   15.86818
       O    -2.14249   -8.36271   16.77125
      H1    -1.33521   -7.85410   16.72616
       H    -9.61050   -4.26550   18.87141
       O   -10.56137   -4.03099   18.73096
      H1   -11.08003   -4.55538   19.33422
       H    -5.68435   -4.39023   10.46650
       O    -5.86725   -5.28178   10.78535
      H1    -6.80503   -5.21319   10.89440
       H    -5.51626    0.72042   15.65686
       O    -6.33134    0.19891   15.56267
      H1    -6.32253   -0.39424   16.38954
       H    -0.54789   -1.33282   14.08057
       O    -1.25399   -2.04224   14.02258
      H1    -1.66657   -1.66089   13.19401
       H   -11.04490  -10.36473   15.87505
       O   -11.07303   -9.41085   15.73721
      H1   -10.17112   -9.13497   15.89804
       H    -2.68917   -4.71461   11.61952
       O    -2.21475   -4.50007   10.82014
      H1    -1.89220   -5.36007   10.49475
       H     0.94532  -10.13603   16.87914
       O     0.06748  -10.53516   16.52900
      H1    -0.63040   -9.83438   16.66995
       H   -10.25288   -8.55178   19.34139
       O   -10.83794   -7.77542   19.43855
      H1   -11.65866   -7.96506   18.89293
       H    -4.02578   -2.53128   17.08437
       O    -4.11345   -2.02293   17.93963
      H1    -3.44853   -1.33056   17.93096
       H    -6.02833   -2.37382   12.69007
       O    -5.64694   -2.52127   11.74915
      H1    -4.79001   -2.08318   11.92367
       H    -1.23551   -3.02731   17.84412
       O    -0.81089   -3.71813   18.38260
      H1    -1.60502   -4.25176   18.63768
       H    -7.87900  -12.77100   15.48474
       O    -8.62535  -12.49386   14.92764
      H1    -8.82170  -13.37309   14.51737
       H     1.90301   -3.61467   17.45297
       O     2.32950   -3.75985   16.58130
      H1     1.56059   -4.06079   16.09287

