180
frame 8 | Written by MDAnalysis XYZWriter (release 2.4.3)
       H    13.66317    5.66943   15.62174
       O    13.46419    4.89151   16.22516
      H1    12.96535    4.26223   15.66789
       H     8.47344    8.96217   11.31619
       O     8.24329    8.08619   11.03543
      H1     8.03018    8.20919   10.11597
       H    17.38097    7.14601    9.72515
       O    16.42158    7.17221    9.81689
      H1    16.17033    6.74479   10.65732
       H     5.42105   12.88482   14.85885
       O     5.93550   12.43518   15.57636
      H1     6.00067   11.53080   15.19348
       H     9.26123    8.55062   16.36766
       O     9.13155    7.65491   16.69531
      H1     8.69149    7.70796   17.51295
       H     8.45946    9.25215    4.01228
       O     9.00768    8.90763    3.23996
      H1     8.54922    9.27801    2.50633
       H    17.64904   11.04066   12.72844
       O    17.51580   11.08877   13.68696
      H1    18.11819   10.42319   14.12536
       H    10.93682    8.93176   11.18517
       O    11.33578    9.79039   11.42255
      H1    11.40414   10.27005   10.59772
       H    12.38284   11.54444    8.92760
       O    11.40271   11.58620    9.11806
      H1    11.27267   12.46730    9.41560
       H     9.49221    7.73555    6.02043
       O     8.98043    6.92206    6.29860
      H1     9.39237    6.18572    5.82331
       H    15.02644   10.17022    9.79986
       O    15.41149    9.67954   10.55224
      H1    15.89747    8.96200   10.19057
       H    10.04763    6.20521   14.44744
       O    10.57924    5.41718   14.67599
      H1    10.47748    4.89524   13.90535
       H     7.35946   15.98477   13.91148
       O     8.02532   15.80798   14.55377
      H1     8.29574   14.85621   14.48445
       H    14.08659    9.50455   11.81854
       O    13.60033    9.30486   12.68476
      H1    12.70932    9.24645   12.33319
       H    10.56695   17.62650   11.75748
       O    10.83485   16.96033   11.14021
      H1    11.84046   17.05269   11.02139
       H    12.37621    7.50796    6.85118
       O    12.80357    8.18124    6.26085
      H1    11.99796    8.59383    5.85388
       H    16.94495   14.89375    9.61235
       O    17.50576   15.67434    9.59527
      H1    17.63764   15.94341   10.51503
       H    11.35074   14.17926   15.40096
       O    11.53089   13.27733   15.72055
      H1    12.03715   12.83379   15.04869
       H     8.53100    7.02625   15.31527
       O     8.10676    6.87110   14.45778
      H1     7.67452    5.98863   14.40384
       H     4.78885    6.98724   13.53254
       O     5.11700    7.01290   12.63754
      H1     6.05002    7.26973   12.73464
       H    16.24907    6.84613    6.59812
       O    16.89760    7.22355    5.93534
      H1    17.01458    6.58018    5.20661
       H     8.00556    7.59195    7.71103
       O     7.50928    8.04857    8.39740
      H1     7.26300    8.88952    8.03460
       H    10.25916   10.06156    5.68043
       O    10.69926    9.35457    5.23846
      H1    10.21020    9.27189    4.41235
       H     9.54094   13.03486   15.27523
       O     8.72351   13.29476   14.88905
      H1     8.00819   12.91321   15.40779
       H    10.55853   13.67917    4.91055
       O    10.66509   12.76379    4.76082
      H1    11.41086   12.53775    4.17188
       H     6.39931    6.42953    8.69345
       O     5.82350    5.62699    8.82726
      H1     5.11335    6.05234    9.35371
       H    17.03505   12.23682    9.63550
       O    16.62792   12.72773    8.91263
      H1    17.03826   12.22353    8.13870
       H     5.57422   13.76869   10.61934
       O     5.30017   12.84268   10.84163
      H1     4.46711   12.74354   10.31845
       H    13.27271    7.05625    3.45693
       O    13.11247    6.51855    4.25656
      H1    12.98083    7.16067    4.96974
       H    16.98444   14.48052    5.47766
       O    16.13735   14.04261    5.58735
      H1    15.89803   14.20156    6.46168
       H    14.16613   11.66809   15.22147
       O    13.48162   11.41152   14.57159
      H1    13.80052   10.67137   14.02971
       H     8.71587   15.47452    6.32500
       O     8.90570   15.55028    5.41147
      H1     8.10329   15.39057    4.93154
       H    11.08122    6.76658   10.52178
       O    10.80316    7.55842   10.05120
      H1     9.83954    7.51458   10.11414
       H     6.33496   11.56732   10.55212
       O     6.94343   10.84643   10.57236
      H1     7.71301   11.22188   10.98935
       H    14.90881   12.04608    8.90644
       O    14.22036   11.35620    8.78858
      H1    14.48003   11.08519    7.84629
       H     6.70548   10.59112    4.29306
       O     6.96967    9.91095    4.93355
      H1     6.36177    9.21484    4.88330
       H     9.06618   12.48400   12.99143
       O     9.24230   12.00422   12.20891
      H1     9.92363   11.40996   12.35783
       H    14.42125    8.94627    6.29249
       O    15.02376    9.70411    6.36171
      H1    15.81923    9.26348    6.04473
       H     5.47949   12.68087    5.72258
       O     5.43914   12.73069    6.69010
      H1     6.20428   12.09320    6.88204
       H    11.19321    6.46504    8.65021
       O    11.69372    5.90376    8.05916
      H1    11.06945    5.27354    7.71622
       H    10.26640   11.44802    7.49811
       O     9.70277   11.24389    6.73680
      H1     9.99138   11.90095    6.02965
       H    15.26032   15.54829   12.99937
       O    14.30026   15.39741   12.99439
      H1    14.14506   14.49436   12.67624
       H     7.98960   11.21303    7.50149
       O     7.16518   11.06770    8.01473
      H1     7.39769   11.31560    8.95932
       H    13.99158    5.95096   12.80180
       O    14.50798    5.71918   11.95764
      H1    14.54531    4.77155   12.13620
       H    10.71686   14.72307   11.00611
       O    10.76742   13.77192   10.86296
      H1    10.03463   13.24718   11.23800
       H    18.27950   10.96040   10.92501
       O    17.48118   11.39384   11.13741
      H1    16.79601   10.71598   10.98691
       H    10.84456    4.17236   11.95080
       O    10.56492    3.50172   12.60806
      H1     9.97414    2.94764   12.08690
       H    13.80155   16.54039   11.73265
       O    13.52522   17.25290   11.15214
      H1    14.15373   17.28420   10.43699
       H    13.90578   15.54492   15.04267
       O    14.01196   15.94169   15.91605
      H1    13.37943   15.64136   16.54203
       H    12.11045    6.26234   14.45137
       O    12.98453    6.63283   14.35194
      H1    13.01315    7.56003   14.22219
       H    11.98934    4.30373   10.15357
       O    12.04057    4.93310   10.87085
      H1    12.90104    4.78488   11.22282
       H    16.45594    5.56660   14.64157
       O    16.41039    6.44676   15.07586
      H1    16.31432    7.15058   14.41261
       H     5.70504    9.85386   13.59730
       O     5.31088   10.33745   12.84119
      H1     6.04849   10.53709   12.22710
       H    16.38735   11.98209   15.68046
       O    15.62897   12.06063   16.25858
      H1    15.61504   12.97756   16.58240
       H    12.26452   13.37181   11.63208
       O    13.11940   13.06589   12.00502
      H1    12.84753   12.55902   12.79235
       H    14.34222    5.97396    7.93144
       O    15.27432    6.05446    7.69676
      H1    15.67620    6.44839    8.48680
       H    14.83862   10.10906    3.63002
       O    13.85329   10.19430    3.59524
      H1    13.55290   10.25748    4.49701
       H    10.37799   16.36432   15.10268
       O    11.15878   15.74403   14.92746
      H1    11.84827   16.40426   14.72099
       H    15.53672    8.53728   13.14093
       O    16.50374    8.48901   13.26588
      H1    16.69452    9.41715   13.31781
       H     6.90290    8.34968   14.75415
       O     6.42907    9.10748   15.09329
      H1     5.97566    8.73765   15.88462

