180
frame 3 | Written by MDAnalysis XYZWriter (release 2.4.3)
       H     5.42380   -1.46190    7.09424
       O     5.42008   -2.32389    6.69622
      H1     5.17755   -2.92438    7.43659
       H    15.43238    4.77422    4.09004
       O    14.96824    5.49892    4.52716
      H1    14.06797    5.20897    4.37673
       H    12.13933    2.68555    9.35367
       O    11.67321    3.43230    9.05156
      H1    12.42265    4.00622    8.81636
       H     6.57788   -4.10587    2.45212
       O     5.84858   -3.96624    1.82512
      H1     6.18847   -3.38532    1.12827
       H     7.30035    1.56313   13.55678
       O     8.26413    1.52476   13.51115
      H1     8.39870    1.96285   12.66272
       H    12.67341    0.99919   10.65489
       O    12.02037    0.66187   10.01978
      H1    11.78546   -0.20288   10.25181
       H     7.79359    2.88695   10.91269
       O     8.74422    2.76056   11.14188
      H1     8.94542    2.02873   10.56917
       H    15.84951    0.60996    9.04648
       O    15.32637    1.27309    8.59999
      H1    15.89626    1.71739    7.99039
       H     5.96616    1.27033    2.47751
       O     6.92689    1.18339    2.55196
      H1     7.04146    0.73946    3.37975
       H     9.60620   -2.33387   13.49065
       O    10.32984   -2.45306   12.84740
      H1    10.93475   -1.85652   13.28119
       H    16.15079    0.38556    3.80024
       O    16.25314   -0.59299    3.89631
      H1    15.91958   -1.03846    3.06990
       H     4.49664    0.03364   10.51925
       O     4.95011   -0.78542   10.24592
      H1     5.53285   -0.88194   11.05101
       H     4.76563    2.52693    7.37721
       O     4.17050    3.34672    7.44312
      H1     3.55228    2.96597    8.09429
       H    14.68464    2.74880    9.33896
       O    14.72451    3.67734    9.41064
      H1    15.06570    3.97152    8.53414
       H    11.92577   -3.85708    0.36307
       O    11.56828   -3.91221    1.27185
      H1    11.07230   -3.09502    1.37980
       H    14.27147   -3.22811    1.86619
       O    14.55676   -2.32140    1.61578
      H1    14.15796   -2.31784    0.72876
       H    10.47257   -1.01289    5.76324
       O    10.11558   -0.41125    6.39071
      H1     9.37442   -0.08674    5.89296
       H     4.67662   -3.18264    2.96068
       O     4.01928   -2.71540    3.53085
      H1     3.36251   -3.41818    3.76513
       H     8.53847   -4.96657    3.59983
       O     7.56866   -5.06039    3.70136
      H1     7.73679   -5.75142    4.36582
       H    13.69064   -5.57699    4.47005
       O    13.08242   -5.99610    5.09854
      H1    12.63811   -6.55782    4.44385
       H     6.62293   -2.76040    5.77573
       O     7.49189   -2.68509    5.26448
      H1     7.55509   -3.58152    4.84185
       H    10.24668   -2.51712   10.82465
       O    10.85716   -2.23166   10.15215
      H1    11.68285   -2.19336   10.60863
       H    12.63126    0.26302   -0.31521
       O    12.31847    0.82398    0.42415
      H1    12.94408    1.52404    0.34376
       H    14.55131   -4.52681    7.80216
       O    15.19569   -5.18295    8.20139
      H1    14.93804   -5.13042    9.11331
       H    10.01378    4.09099   11.35829
       O    10.84805    4.52239   11.57419
      H1    11.32613    4.27003   10.75076
       H    12.01846    6.12705    7.96897
       O    12.84737    6.01792    8.50266
      H1    12.61707    6.63452    9.20708
       H    13.65256   -1.32060   11.90764
       O    13.57276   -1.78692   11.04309
      H1    14.06347   -2.57022   11.24176
       H    11.45207    4.43084    4.81770
       O    12.33817    4.54900    4.63653
      H1    12.58352    3.69708    4.27424
       H     9.82591    5.59988    7.51314
       O     9.74446    4.82694    7.02643
      H1     9.83152    4.03524    7.61053
       H    10.13641    1.12498    0.10427
       O     9.29170    1.26292   -0.33588
      H1     9.00628    2.13603   -0.04964
       H     9.65928   -0.63061    0.84938
       O    10.14379   -1.40070    1.16864
      H1    10.85850   -0.99536    1.74725
       H     5.16843    0.09265    6.32524
       O     5.36228    0.41358    7.19205
      H1     6.19579    0.85034    6.95553
       H    11.31450    0.95713    6.80813
       O    12.15487    1.42170    6.98745
      H1    11.79751    2.02133    7.72068
       H    10.22199    0.87243    9.57618
       O     9.35506    0.85339    9.11712
      H1     8.98833   -0.02553    9.06519
       H    11.53450    3.56402    2.16519
       O    12.08303    4.09167    1.59585
      H1    12.67885    4.52832    2.19958
       H     7.34056   -5.74228    8.63202
       O     7.55137   -6.59802    8.25379
      H1     8.33402   -7.00192    8.64363
       H     9.60685   -1.92434    7.15880
       O     9.24855   -2.83084    7.23691
      H1     8.73789   -3.06327    6.41341
       H     2.84387   -1.03695    7.13139
       O     2.83469   -1.91588    6.70550
      H1     3.74050   -2.09655    6.52115
       H     7.15623   -3.57121    9.53365
       O     7.91028   -4.12535    9.34199
      H1     8.37095   -3.70612    8.57687
       H    15.79297   -0.74584    5.74758
       O    15.68742   -0.98836    6.68111
      H1    15.13269   -0.24294    6.95324
       H    12.28063   -6.97694    8.36184
       O    12.40979   -7.89476    8.63376
      H1    11.50257   -8.17991    8.69762
       H     8.81440    3.41740    3.37183
       O     9.40933    2.99677    2.74882
      H1     8.69925    2.38979    2.41428
       H    11.13484   -5.43142    1.37261
       O    11.24367   -6.43056    1.51242
      H1    10.43134   -6.73353    1.08807
       H    12.40786   -1.83359    4.54469
       O    11.90912   -2.60266    4.94455
      H1    12.48896   -2.86857    5.73744
       H     8.28122   -1.04330    4.22377
       O     8.97240   -0.49892    3.84630
      H1     9.15480   -1.03876    3.03365
       H     7.16971   -0.09102    1.04733
       O     7.16195   -0.33208    0.13298
      H1     7.97589    0.21001   -0.09712
       H    12.44432    1.61284    4.93256
       O    12.81911    1.77061    4.06704
      H1    12.57271    0.97144    3.61044
       H     4.70597    4.00679    5.97386
       O     5.04904    4.49683    5.18291
      H1     5.90494    4.05375    5.18403
       H    11.00625   -4.36952    7.90207
       O    11.49918   -5.19340    7.75990
      H1    11.69485   -5.12681    6.81152
       H     8.60504    4.63036    5.70787
       O     8.14028    4.14478    4.89337
      H1     7.85731    4.87418    4.33998
       H     8.56635   -6.05532    6.96498
       O     8.91663   -6.02019    6.01286
      H1     9.82356   -5.70098    6.16727
       H     9.79904   -5.07829   12.69802
       O    10.71367   -5.08627   12.35922
      H1    10.91311   -4.14223   12.41673
       H    12.51690   -0.02512    1.92878
       O    12.31992   -0.77773    2.54214
      H1    12.99761   -1.48538    2.43797
       H    14.93273   -5.36047    2.57037
       O    14.09803   -4.80925    2.50335
      H1    13.43071   -5.43979    2.20908
       H     4.19089   -3.91884    9.57505
       O     4.84284   -3.51284    9.06816
      H1     4.90923   -2.65225    9.43933
       H    10.77078   -4.86119    3.12163
       O    10.11467   -4.48956    3.74912
      H1    10.70638   -3.79602    4.07937
       H    14.55663    1.92153    4.33284
       O    15.52321    2.14598    4.15269
      H1    15.85163    2.33619    5.05418
       H     4.33169   -0.00360    3.42555
       O     4.31571   -0.15260    4.38843
      H1     4.32716   -1.09647    4.33348
       H     8.42253    1.60340    6.99864
       O     7.78422    1.70383    6.34328
      H1     8.12686    2.42511    5.76751
       H    14.15555   -2.03599    7.05594
       O    13.48032   -2.73406    7.16159
      H1    13.11983   -2.50298    7.97932

