180
frame 6 | Written by MDAnalysis XYZWriter (release 2.4.3)
       H    12.64514  -10.53616  -14.37049
       O    11.96185  -10.23731  -14.94184
      H1    12.39386  -10.41188  -15.83946
       H    12.72529   -8.82754   -6.33743
       O    13.70275   -8.94554   -6.42375
      H1    13.99507   -8.94360   -5.52317
       H    13.25395  -14.58082  -10.91102
       O    12.64127  -15.00330  -11.57708
      H1    12.93258  -15.91957  -11.41916
       H    12.55601  -11.18241   -8.27212
       O    12.72299  -11.84390   -7.55157
      H1    13.32106  -11.35824   -6.97401
       H    17.25228  -16.80573   -9.20213
       O    18.04397  -16.86168   -8.58096
      H1    17.78622  -17.59748   -8.07158
       H    11.46025  -17.30545   -7.12130
       O    11.36507  -16.37624   -7.31488
      H1    10.71286  -16.11110   -6.68533
       H    15.74717  -17.32100  -14.72137
       O    15.12874  -18.05665  -14.77804
      H1    15.44144  -18.49317  -13.95335
       H    13.94932   -6.79830  -10.96251
       O    13.37551   -6.08287  -11.34123
      H1    12.79735   -5.79648  -10.64050
       H    11.34489  -14.42542  -15.22612
       O    12.22070  -14.87399  -15.39333
      H1    12.90351  -14.17602  -15.25848
       H    18.95604  -13.03256   -4.91344
       O    19.36310  -12.61876   -5.64280
      H1    19.33457  -13.32373   -6.30779
       H    10.60680  -10.34263   -9.86046
       O    11.14924  -11.05393   -9.55566
      H1    11.37492  -11.37135  -10.41686
       H    18.17050  -11.42476  -13.29315
       O    18.94338  -11.54307  -12.70348
      H1    18.56068  -11.92146  -11.92917
       H    17.65176  -13.54477  -14.91972
       O    17.71744  -13.19072  -15.83939
      H1    17.85966  -14.00518  -16.35540
       H    18.68876   -8.92536   -7.39665
       O    18.07352   -8.19734   -7.47555
      H1    17.55593   -8.11486   -6.66685
       H    10.24057  -16.44046  -10.80836
       O    10.09617  -15.68581  -11.41452
      H1    11.03270  -15.38424  -11.56981
       H    16.72033  -13.73989   -7.45945
       O    17.05305  -12.95220   -7.90900
      H1    17.85625  -13.20698   -8.44041
       H    16.10073  -13.39143   -3.20363
       O    16.29428  -12.82731   -3.97815
      H1    17.07667  -12.38577   -3.63633
       H    10.10748  -17.08909  -12.78202
       O    10.13860  -17.80123  -13.44836
      H1    10.97587  -17.65226  -13.91984
       H     8.48498  -10.46626  -13.94829
       O     8.71534   -9.77381  -14.59426
      H1     9.65220   -9.81659  -14.68567
       H     9.90380  -11.73000   -7.19165
       O     9.63682  -11.12305   -6.47558
      H1    10.21361  -10.36545   -6.63479
       H    17.34933  -15.33602  -17.81114
       O    17.74813  -14.59514  -18.30260
      H1    17.06266  -14.54741  -19.00010
       H    15.29785  -10.45669  -17.71675
       O    15.30913   -9.87008  -18.52315
      H1    16.17748   -9.47478  -18.54579
       H    16.87208  -17.88510  -12.15340
       O    15.93933  -18.19139  -12.11708
      H1    15.44610  -17.47175  -11.78420
       H    19.43817  -16.67175  -12.28605
       O    18.47068  -16.53042  -12.52575
      H1    18.51258  -16.84175  -13.52518
       H    14.57100  -12.20698  -13.11976
       O    13.70883  -12.64189  -13.21710
      H1    13.86096  -13.45075  -12.73665
       H    15.02173   -6.98268   -8.95824
       O    15.10063   -6.17757   -8.46176
      H1    15.77967   -5.78855   -8.99695
       H    18.91778  -15.36044   -7.68438
       O    19.66693  -14.77171   -7.41308
      H1    20.19595  -15.32965   -6.82277
       H    15.91371  -11.63990   -7.05335
       O    15.56065  -11.06043   -6.29524
      H1    15.19387  -10.25692   -6.66003
       H    10.54598  -18.20946   -9.54103
       O     9.61359  -18.02962   -9.66525
      H1     9.35568  -17.78954   -8.76247
       H    17.57450   -9.25857   -9.01047
       O    17.56991   -9.74016   -9.92038
      H1    17.59818   -8.98903  -10.53886
       H    16.33158  -17.75084   -6.15820
       O    16.87439  -18.44749   -6.56538
      H1    16.23843  -19.20934   -6.76893
       H    15.28711   -8.32782  -14.23520
       O    15.84494   -8.53242  -13.44581
      H1    16.39868   -7.71658  -13.40727
       H    15.18854  -12.68771  -11.20070
       O    15.59567  -13.55238  -11.45314
      H1    16.10029  -13.26377  -12.25403
       H     9.45561  -13.25588  -16.04166
       O     9.70940  -13.60586  -15.14859
      H1     9.36794  -12.94726  -14.54538
       H    13.04661   -7.01186  -15.40983
       O    13.98570   -7.16825  -15.32172
      H1    14.40342   -6.77107  -16.12436
       H    16.77429  -10.57636  -16.27231
       O    15.99736  -11.17205  -16.13965
      H1    16.41555  -12.07178  -16.28929
       H    12.74013  -11.86057  -17.78655
       O    12.80116  -10.99109  -17.35156
      H1    12.68362  -10.35513  -18.03785
       H    15.97923  -11.97047   -9.21434
       O    15.48114  -11.29615   -9.62763
      H1    16.15887  -10.59656   -9.82156
       H    17.20253   -8.69536  -15.07018
       O    17.81778   -9.09335  -15.67007
      H1    18.60677   -9.16542  -15.05631
       H    17.75954  -17.23169  -16.06035
       O    17.01632  -16.71789  -16.49164
      H1    16.41817  -17.43321  -16.56009
       H    14.71959  -14.87080   -5.78906
       O    14.43650  -13.96132   -5.94335
      H1    15.02557  -13.48815   -5.29551
       H    16.73508   -9.95174   -4.82785
       O    17.29621   -9.22251   -4.55427
      H1    16.66021   -8.77862   -3.97561
       H    11.26412  -12.79306   -8.49136
       O    10.62976  -13.48805   -8.51074
      H1    11.08727  -14.28541   -8.30700
       H     7.55408  -11.77638  -13.36916
       O     8.43474  -12.07437  -13.02395
      H1     8.26456  -12.19436  -12.03962
       H    12.43041  -17.95650  -17.25891
       O    12.16246  -17.25432  -17.85348
      H1    12.12258  -16.50184  -17.22350
       H    15.28307  -15.57631   -9.52864
       O    15.72994  -16.00625  -10.26174
      H1    16.09897  -15.29481  -10.71983
       H    12.63922  -16.54859  -14.36440
       O    12.59406  -17.46643  -14.19949
      H1    13.52242  -17.75292  -14.24912
       H    10.43365  -12.20196  -12.26315
       O    11.33247  -11.93603  -12.11707
      H1    11.76615  -12.51929  -12.72579
       H    13.77975  -13.00916   -8.84065
       O    14.01231  -13.96269   -8.86791
      H1    14.03646  -14.05625   -7.88480
       H    18.25743  -14.77715  -13.03597
       O    17.86157  -13.95833  -13.38431
      H1    18.61233  -13.37268  -13.16016
       H    18.54350  -18.67742  -14.72270
       O    18.80934  -17.76735  -14.95559
      H1    19.48985  -17.89368  -15.63154
       H    14.31051  -10.87295  -10.77966
       O    13.77992  -10.34763  -11.43886
      H1    13.05140  -10.92095  -11.62497
       H    12.13653  -14.23390  -17.28619
       O    12.40449  -13.77774  -18.10210
      H1    13.17936  -14.27912  -18.36126
       H    15.52433   -8.37440  -11.42918
       O    15.20887   -8.27456  -10.53658
      H1    14.43975   -8.91499  -10.64647
       H    11.82979   -8.72980  -12.92396
       O    11.56769   -7.84315  -12.62721
      H1    12.36193   -7.38337  -12.45235
       H    15.84523  -16.10106   -4.81688
       O    15.50320  -16.33249   -5.73664
      H1    14.70531  -16.83401   -5.45959
       H     9.45198  -13.23930   -9.91690
       O     8.75217  -13.31614  -10.55756
      H1     8.97022  -14.24039  -10.81976
       H    16.08495  -11.07858  -14.45061
       O    16.02090  -11.11302  -13.47326
      H1    15.96117  -10.13933  -13.39421
       H    12.69247  -17.86590  -12.22313
       O    13.06460  -17.73394  -11.33053
      H1    13.08673  -18.65774  -10.92486
       H    18.65182   -7.26997  -12.33674
       O    19.10312   -7.52124  -11.52610
      H1    19.77480   -8.02447  -11.92629

