180
frame 5 | Written by MDAnalysis XYZWriter (release 2.4.3)
       H    13.31270  -10.11282  -14.18530
       O    12.69384   -9.68964  -14.80826
      H1    13.08599   -9.96051  -15.61380
       H    10.14778   -7.11034  -19.21086
       O    10.99386   -7.58583  -18.99452
      H1    10.69352   -8.50069  -19.07729
       H    13.87760  -15.29809  -10.69976
       O    14.04716  -15.43211  -11.63193
      H1    14.15483  -16.44651  -11.61433
       H    12.40049  -10.57870   -8.76926
       O    12.75464  -11.22350   -8.10254
      H1    13.45677  -10.64039   -7.76346
       H    13.56084   -6.09416  -11.12194
       O    13.20818   -5.29550  -11.56602
      H1    12.25546   -5.46293  -11.30011
       H    11.58735  -14.13118  -14.75712
       O    12.22484  -14.77927  -15.04081
      H1    12.96929  -14.49132  -14.45651
       H     8.93418  -18.00093  -13.84500
       O     8.07458  -17.76010  -14.20228
      H1     8.10860  -18.29185  -14.99825
       H     8.06359  -11.69320   -7.04361
       O     7.11438  -11.79330   -7.12909
      H1     6.92401  -10.99495   -7.61187
       H    10.34660   -9.79681  -10.14223
       O    11.18631  -10.26797  -10.22587
      H1    10.90676  -11.18902  -10.05301
       H    17.84480  -11.74169  -13.11025
       O    18.73189  -12.08953  -13.04945
      H1    18.73687  -12.25239  -12.06947
       H    11.33372   -7.53952  -17.20801
       O    11.60859   -7.31477  -16.28495
      H1    11.93149   -8.19937  -16.07421
       H    11.24747  -15.99647  -10.87104
       O    11.19395  -15.45893  -11.68864
      H1    12.16241  -15.36429  -11.89762
       H    10.45586  -17.47594  -12.25955
       O    10.45891  -18.05125  -13.04512
      H1    11.34160  -17.82252  -13.35363
       H    10.65837  -10.59507  -19.99086
       O    10.54574  -10.24375  -19.03416
      H1     9.87314  -10.89101  -18.66548
       H    10.03208  -10.94945  -14.40519
       O     9.24685  -10.53314  -14.76794
      H1     9.00020   -9.93789  -14.06693
       H     5.40524  -14.90242  -11.56886
       O     5.84446  -15.59662  -12.03628
      H1     6.44180  -15.99189  -11.35704
       H    10.34515  -12.51429   -7.42508
       O     9.83395  -11.78088   -7.07583
      H1    10.52854  -11.12243   -6.98324
       H     9.86456   -7.48044  -15.57368
       O     9.11632   -7.29254  -15.01095
      H1     9.57124   -6.73800  -14.33388
       H     8.75818  -11.42506  -16.38325
       O     8.55082  -11.89651  -17.21153
      H1     7.58511  -11.76338  -17.23471
       H    14.68128   -9.54517  -19.33046
       O    15.51744   -9.58595  -18.85189
      H1    15.45218  -10.49052  -18.50226
       H    14.13356  -12.22231  -13.73576
       O    13.66991  -12.94836  -13.34658
      H1    14.31685  -13.17764  -12.58953
       H    10.55973  -18.08078   -9.46939
       O     9.94673  -17.40335   -9.71682
      H1     9.78623  -17.06574   -8.82156
       H     9.33508   -7.92534   -9.32094
       O     9.08609   -8.65142   -9.87526
      H1     8.65187   -8.23823  -10.68395
       H     7.29147   -8.45681  -12.48124
       O     8.22877   -8.36663  -12.33229
      H1     8.44581   -7.81440  -13.12581
       H    15.07402   -7.70627  -13.77408
       O    15.86207   -7.96127  -13.23483
      H1    16.32448   -7.14567  -13.45209
       H    15.25753  -11.88748  -11.40710
       O    15.69268  -12.73039  -11.24617
      H1    16.04382  -12.85819  -12.12960
       H     9.24519  -13.19099  -16.04694
       O     9.55055  -13.49354  -15.16422
      H1     8.79846  -13.35644  -14.51584
       H     6.02448  -10.46456  -17.97488
       O     5.90775  -11.32643  -17.67446
      H1     5.59214  -11.14228  -16.77777
       H    13.38109   -6.63178  -15.41331
       O    14.24649   -6.53378  -14.92556
      H1    14.89489   -6.72776  -15.64053
       H    16.78527  -10.43717  -16.51023
       O    16.47349  -11.32506  -16.49725
      H1    17.22297  -11.91278  -16.59186
       H    12.58762  -11.22322  -17.61325
       O    12.72079  -10.26246  -17.64568
      H1    12.22233  -10.02790  -18.45328
       H     8.52428   -5.58590  -12.61500
       O     9.42910   -5.80043  -12.69111
      H1     9.48451   -6.75216  -12.51107
       H    15.77105  -11.14665   -9.21117
       O    15.52278  -10.30273   -9.51171
      H1    16.27574   -9.83805   -9.83708
       H     9.38575  -15.02023  -15.58855
       O     9.30908  -15.95033  -15.92826
      H1     9.01463  -16.38364  -15.10883
       H    16.73922   -8.53774  -14.72650
       O    17.34698   -8.92592  -15.36890
      H1    18.09483   -9.12399  -14.79439
       H     5.69104  -14.97918  -13.98564
       O     5.29273  -14.30226  -14.59895
      H1     5.81827  -13.46707  -14.49213
       H    11.88593  -13.81661   -8.24990
       O    10.89645  -13.87298   -8.20768
      H1    10.91004  -14.81796   -8.05517
       H     8.22922  -11.74372  -13.93590
       O     7.48103  -12.40885  -13.85625
      H1     7.58129  -12.76816  -12.92848
       H     8.26256   -7.03737  -16.63403
       O     7.63696   -7.15402  -17.41696
      H1     6.84133   -6.90153  -16.95459
       H     8.98058  -16.04754  -19.48753
       O     9.25804  -15.26815  -19.01376
      H1     9.08834  -15.51881  -18.08930
       H    12.15470  -16.55520  -16.67733
       O    11.94829  -16.63826  -17.60248
      H1    11.67070  -15.69112  -17.80302
       H    15.05706  -14.43696   -8.78409
       O    15.83093  -14.78547   -9.25345
      H1    15.54937  -14.68159  -10.18106
       H    12.52641  -16.51951  -14.60594
       O    12.59923  -17.49559  -14.71301
      H1    13.59396  -17.65929  -14.64301
       H    10.85067  -12.27204  -12.46514
       O    11.27084  -11.81479  -13.18896
      H1    12.12028  -12.24916  -13.13110
       H    13.63031  -13.20162   -7.66465
       O    13.58624  -14.00483   -8.22796
      H1    13.71625  -14.75146   -7.61570
       H    18.17253  -15.29545  -13.83729
       O    17.54327  -14.56335  -13.92193
      H1    18.06077  -13.87518  -13.51042
       H    13.97402  -10.24708  -10.32064
       O    13.56853  -10.18989  -11.19864
      H1    12.62170  -10.27618  -10.88406
       H     5.73446  -13.38483  -10.01690
       O     4.81793  -13.73654  -10.20995
      H1     4.78385  -14.42716   -9.55286
       H     5.19644   -7.66532  -14.18991
       O     5.43654   -8.05476  -13.31958
      H1     4.98515   -8.92536  -13.45784
       H     7.70211   -9.04688   -9.19736
       O     6.82692   -9.39981   -8.87247
      H1     6.11651   -8.80389   -9.21428
       H    12.65296  -13.69202  -16.75641
       O    12.60725  -13.25122  -17.61942
      H1    13.51632  -13.37624  -17.93909
       H    15.06478   -7.70528  -11.38129
       O    14.70910   -7.41916  -10.50548
      H1    14.04056   -8.11717  -10.40158
       H    12.01272   -8.37294  -13.24165
       O    11.60109   -7.56177  -13.05632
      H1    12.24953   -6.89025  -13.15680
       H    10.22062  -13.50750   -9.81401
       O    10.04753  -13.23996  -10.71846
      H1    10.44443  -14.01415  -11.19433
       H    14.54802  -15.18183  -18.86222
       O    14.77588  -14.28493  -18.60331
      H1    15.32268  -13.92824  -19.30585
       H    16.24140  -11.07608  -14.75732
       O    16.09258  -11.00227  -13.79850
      H1    15.98848  -10.04206  -13.63221
       H    13.36768  -18.34085  -12.82772
       O    13.23153  -18.28930  -11.87953
      H1    13.02280  -19.21274  -11.54281
       H     4.62533  -12.21872  -14.52185
       O     4.73506  -11.37470  -14.96989
      H1     3.87790  -11.01163  -15.01055
       H     8.34085  -12.63418  -10.89939
       O     7.42294  -12.37543  -11.09265
      H1     7.51137  -11.40136  -11.07825
       H     4.73982  -10.62447  -12.92510
       O     5.16880  -10.70742  -12.04462
      H1     5.51603  -11.58427  -12.07929

