180
frame 7 | Written by MDAnalysis XYZWriter (release 2.4.3)
       H   -15.15243   14.31061    5.62401
       O   -14.30177   14.64393    6.03546
      H1   -13.79996   14.71189    5.21118
       H   -19.12070   13.47279    3.29356
       O   -19.10979   12.50397    3.04184
      H1   -18.21541   12.44808    2.72204
       H   -18.55067   11.37935   -6.65963
       O   -17.84676   12.00151   -6.98506
      H1   -18.10128   12.81133   -6.48442
       H   -19.18248   15.53314    2.31646
       O   -18.83438   15.28097    3.19841
      H1   -19.44386   15.78983    3.76565
       H   -16.44810   16.62732   -4.31852
       O   -16.00488   15.81255   -3.99018
      H1   -16.83527   15.33199   -3.78726
       H   -18.30420   14.48719   -8.72289
       O   -19.23877   14.74889   -8.77713
      H1   -19.22383   15.70798   -8.93648
       H   -14.39133   19.81422   -2.91247
       O   -13.81354   19.11223   -3.19284
      H1   -13.41734   18.83573   -2.34451
       H   -13.95973   19.73352   -7.79705
       O   -14.83482   19.33999   -7.97353
      H1   -14.86256   19.37354   -8.94353
       H   -15.01802   11.17296   -6.73435
       O   -15.25006   11.29054   -5.82022
      H1   -16.22221   11.52950   -5.84556
       H    -9.19139   15.82840   -0.34537
       O    -8.47369   16.36048   -0.03193
      H1    -7.90473   16.42545   -0.76099
       H   -17.38753   14.56450    4.62835
       O   -16.74109   14.04843    5.19356
      H1   -17.25853   13.91480    5.96865
       H   -15.05750   14.33366   -6.99415
       O   -14.59839   14.98689   -6.33274
      H1   -15.10965   14.91567   -5.49774
       H   -17.79428   17.38163   -6.13353
       O   -17.06694   17.05371   -6.68148
      H1   -16.44978   17.80332   -6.65261
       H   -13.04860   19.00794    3.28940
       O   -12.30699   18.33080    3.29449
      H1   -11.83429   18.60547    2.48521
       H   -11.52139   13.39228   -2.82543
       O   -11.20084   13.18795   -1.93337
      H1   -11.62032   12.33083   -1.70919
       H   -18.06689   18.66086   -3.47343
       O   -17.19623   18.23802   -3.61368
      H1   -17.11248   17.80736   -2.66261
       H   -18.48027   16.98088    5.55265
       O   -19.15326   16.42674    5.98797
      H1   -19.97595   16.94847    5.94658
       H   -18.23764    9.72118    4.71196
       O   -18.97559    9.18859    4.31718
      H1   -18.65915    9.09581    3.39298
       H   -14.45453   10.53055   -1.38033
       O   -15.21429   11.01352   -1.75101
      H1   -15.38153   11.52586   -0.95914
       H   -13.47816   17.79970    1.77342
       O   -13.99338   17.76571    0.91530
      H1   -14.46865   18.60762    0.79591
       H   -16.08002    8.14890   -4.96420
       O   -15.68367    8.30576   -4.13310
      H1   -16.23036    9.02381   -3.87824
       H   -16.28473   11.58540   -3.53296
       O   -17.13702   11.79503   -3.99788
      H1   -17.84423   11.40961   -3.41826
       H   -15.78687   18.49176    5.37880
       O   -15.01656   18.99030    5.66447
      H1   -15.25298   19.51953    6.40480
       H   -19.73751   13.57123   -1.16258
       O   -19.69768   14.30101   -0.56297
      H1   -18.84488   14.22988   -0.18232
       H   -17.59038   18.65800    7.98120
       O   -17.34879   19.54003    7.65410
      H1   -18.01090   19.97449    8.15664
       H   -13.63239   15.66233   -3.36314
       O   -12.73757   15.60065   -3.00446
      H1   -12.47965   16.53777   -3.01040
       H    -9.17658   18.89762   -1.37713
       O    -9.57604   18.72142   -0.54876
      H1    -9.16099   17.87757   -0.30696
       H   -12.73949   10.90754    0.24769
       O   -12.21686   10.51185   -0.42975
      H1   -12.25170    9.58148   -0.23411
       H   -18.84690   14.76097   -6.68168
       O   -19.29022   14.51914   -5.84895
      H1   -20.04654   14.04242   -6.23266
       H   -17.14450   13.89574   -1.22080
       O   -16.97388   13.82808   -0.25019
      H1   -16.06603   14.17437   -0.22432
       H   -12.75007   14.95891    2.85907
       O   -12.75691   15.57776    3.66412
      H1   -12.54237   16.47495    3.27698
       H   -12.53942   17.97652   -5.81836
       O   -11.85252   18.31858   -5.26266
      H1   -12.37665   18.63398   -4.54114
       H    -8.34390   13.93336   -2.84820
       O    -8.82475   13.97489   -3.67199
      H1    -9.62173   13.47518   -3.55527
       H   -14.04161   17.77163    6.49427
       O   -13.62336   17.03024    6.99674
      H1   -14.19248   16.25368    6.76368
       H   -15.25086   10.05073    4.59779
       O   -14.32405   10.13157    4.29565
      H1   -14.20014    9.22550    3.99982
       H   -16.78258   12.34181    0.74913
       O   -16.71124   11.65337    1.45231
      H1   -15.78510   11.82260    1.65071
       H   -15.87311   18.32857    1.95688
       O   -16.79595   18.55409    1.84723
      H1   -17.05273   18.11928    0.98397
       H   -14.72439   15.98786    0.08674
       O   -14.53238   15.13974   -0.30917
      H1   -13.72184   15.33473   -0.81399
       H   -17.79924    8.73170    0.93221
       O   -17.85606    9.30126    1.67938
      H1   -17.33137   10.07010    1.41734
       H   -10.64062   15.54190    6.13063
       O   -10.33653   15.47358    5.23292
      H1   -11.10470   15.43706    4.66923
       H   -16.60657    8.26558   -1.32504
       O   -17.54162    8.25772   -1.08231
      H1   -17.64240    7.29208   -0.95173
       H   -10.99809   14.99778   -1.39914
       O   -10.98803   15.65349   -0.64716
      H1   -11.50288   16.39195   -0.88899
       H   -14.44146   12.84502   -8.96904
       O   -14.61665   13.74978   -8.79295
      H1   -13.70957   14.06118   -8.59742
       H   -13.71694   11.30708   -4.69322
       O   -12.87535   11.59393   -4.20808
      H1   -12.19454   10.98355   -4.48802
       H   -12.34542   14.11291   -6.98023
       O   -11.99282   14.27475   -7.85149
      H1   -11.83726   13.39992   -8.17887
       H   -18.44921    8.43336   -2.97731
       O   -18.64425    8.80028   -3.84672
      H1   -19.21483    9.52612   -3.56375
       H   -15.85866   15.36296  -10.03537
       O   -16.30875   16.02770   -9.49383
      H1   -15.74941   15.84716   -8.69313
       H   -12.95153   12.21104    1.80909
       O   -13.71926   11.63538    1.70690
      H1   -13.65747   11.08042    2.50923
       H   -17.67869   18.40560    4.94783
       O   -17.20579   17.59981    4.66514
      H1   -17.12168   17.77213    3.71444
       H   -19.22493   13.34094    6.12870
       O   -18.91234   13.70070    6.94614
      H1   -19.23804   14.63588    6.86677
       H   -14.03283   17.76760   -7.53577
       O   -13.28854   17.16471   -7.27198
      H1   -13.66578   16.31644   -6.92675
       H   -17.95571   17.13458   -9.19894
       O   -18.80435   17.50106   -8.92274
      H1   -19.20148   17.77947   -9.79526
       H   -10.50346   17.83640    3.89129
       O    -9.54678   17.91331    4.14656
      H1    -9.45514   17.13677    4.81958
       H   -17.50482   16.96277   -0.84804
       O   -16.60954   17.30640   -1.09639
      H1   -16.15701   16.54420   -1.47912
       H   -13.24272   14.60100    0.73618
       O   -12.46474   14.28212    1.26094
      H1   -11.77074   14.83193    0.91491
       H   -17.39901   13.56883   -3.38018
       O   -17.75702   14.21627   -2.78382
      H1   -18.73528   14.18839   -2.99143
       H   -12.74616   18.12831   -0.25383
       O   -12.28960   18.00212   -1.12680
      H1   -11.46093   18.31434   -0.89623
       H   -12.00559   14.53143   -4.44676
       O   -11.51171   13.85158   -4.95387
      H1   -12.17763   13.09733   -4.97254
       H   -16.69153   11.58759    4.67612
       O   -16.86881   10.75620    5.12752
      H1   -16.54451   11.00538    6.07313
       H    -9.57703   16.01489   -4.01732
       O    -9.21562   16.90788   -4.19976
      H1   -10.05168   17.33015   -4.39725

