180
frame 1 | Written by MDAnalysis XYZWriter (release 2.4.3)
       H    -6.18196  -15.05030   -2.22056
       O    -5.41657  -15.36010   -2.78929
      H1    -4.75012  -14.79249   -2.44222
       H     3.04866  -18.41241   -2.26022
       O     3.44826  -19.18609   -1.81373
      H1     2.77319  -19.47161   -1.21119
       H     6.02162  -14.58263   -3.63917
       O     5.18132  -14.18040   -3.89108
      H1     5.52001  -13.38631   -4.26731
       H    -1.06951  -14.00421    1.37194
       O    -2.06735  -14.04384    1.45644
      H1    -2.20953  -13.41884    2.15807
       H    -3.58818  -16.43761   -6.00838
       O    -3.52759  -15.46416   -5.93326
      H1    -3.23789  -15.33619   -5.02579
       H     0.57957  -12.82248   -3.96325
       O     1.41334  -13.20566   -3.66926
      H1     1.23424  -14.14661   -3.69990
       H    -1.75421  -15.27347  -10.45041
       O    -1.99616  -14.93130  -11.31067
      H1    -2.72125  -14.32986  -11.13989
       H     2.10024  -15.52243  -10.05816
       O     1.20665  -15.21045   -9.94111
      H1     1.17771  -15.21753   -8.96532
       H    -1.58460  -10.19556   -8.63449
       O    -1.51735  -10.41166   -9.59102
      H1    -1.79072  -11.32752   -9.48658
       H    -2.64901  -14.28240   -2.40971
       O    -2.23287  -14.47211   -3.24636
      H1    -1.83504  -13.66145   -3.58097
       H     2.51354  -19.25203   -4.98035
       O     1.53281  -19.25585   -5.05683
      H1     1.31984  -19.38032   -5.96496
       H     2.15569  -13.28227  -11.99512
       O     3.04796  -13.15612  -12.36326
      H1     2.90739  -13.47543  -13.24730
       H    -0.47825  -16.85459   -3.95733
       O    -0.25192  -15.90913   -4.02155
      H1    -0.90111  -15.55468   -3.39204
       H     3.62855  -14.20166  -11.12125
       O     4.07396  -15.02492  -10.83642
      H1     4.25747  -15.43377  -11.67474
       H    -4.84581  -17.78284   -1.29661
       O    -4.80199  -18.65903   -1.77992
      H1    -5.56250  -18.47750   -2.43700
       H     3.95477  -12.86431   -8.53905
       O     3.08180  -12.65307   -8.10323
      H1     3.40422  -12.34277   -7.22390
       H     1.47013  -16.65293   -3.03649
       O     2.43210  -16.84676   -2.76943
      H1     2.86346  -16.60001   -3.59762
       H     3.19306  -15.38401   -1.29648
       O     4.07206  -15.34252   -0.83338
      H1     4.19150  -14.36611   -0.58718
       H     1.33608  -16.15620  -13.79425
       O     0.70915  -16.05126  -13.03936
      H1     0.91581  -15.11247  -12.76373
       H     2.54601  -14.50203   -7.34924
       O     2.14438  -15.36273   -7.14886
      H1     1.25185  -15.07259   -6.84662
       H    -0.58264  -13.23452   -5.47535
       O    -0.78367  -12.63299   -4.75475
      H1    -1.05663  -11.79077   -5.17197
       H    -6.54356  -14.14025   -8.40599
       O    -7.41142  -13.86692   -8.73554
      H1    -7.43909  -12.96583   -8.41756
       H    -2.82408  -10.01887  -10.66291
       O    -3.46032  -10.20312  -11.36854
      H1    -4.16199   -9.47947  -11.18530
       H    -7.58391  -12.65415   -4.73288
       O    -6.87636  -12.12129   -5.08934
      H1    -7.16082  -11.20208   -4.90306
       H    -7.76061  -18.22921   -3.13635
       O    -6.88769  -18.61625   -3.45972
      H1    -6.78319  -18.07801   -4.28797
       H     6.98531  -13.71564   -7.45935
       O     6.78347  -14.44187   -8.01693
      H1     6.46460  -15.07551   -7.40923
       H    -1.59492  -13.19873   -0.43504
       O    -0.89851  -12.80667   -0.95883
      H1    -0.09229  -13.29375   -0.77626
       H    -5.36996  -11.37110   -9.84501
       O    -5.54096  -10.53544   -9.23632
      H1    -5.74867   -9.83926   -9.83602
       H    -6.85142  -11.10919   -8.22190
       O    -7.61420  -11.46244   -7.73289
      H1    -7.12570  -11.72366   -6.95008
       H    -5.14985  -13.26763  -11.39182
       O    -4.52287  -12.92003  -10.66754
      H1    -3.99235  -12.18525  -11.11220
       H    -0.52975   -9.51451   -7.12609
       O    -1.48096   -9.63810   -6.96522
      H1    -1.82392   -8.72162   -6.90105
       H    -4.57664   -7.86538   -5.68649
       O    -4.78746   -8.65760   -6.19428
      H1    -3.92776   -8.89468   -6.62405
       H    -0.45925  -17.31562   -9.86761
       O    -0.91763  -17.16393   -9.00687
      H1    -0.23953  -16.61323   -8.51546
       H    -4.49532  -13.34274   -0.44976
       O    -3.83125  -14.04293   -0.80035
      H1    -3.37071  -14.22206    0.04816
       H     1.61894   -8.43076   -8.07643
       O     0.73806   -8.84184   -8.18807
      H1     0.67165   -9.21055   -9.03742
       H    -3.04383  -12.44261   -6.71051
       O    -2.46490  -12.95425   -7.27150
      H1    -3.04218  -13.75281   -7.36493
       H     3.53787  -11.26657   -4.85191
       O     3.47923  -12.11742   -5.20004
      H1     2.77121  -12.52345   -4.64352
       H     4.19594  -15.20471   -4.65830
       O     3.71106  -16.03350   -4.90566
      H1     3.14374  -15.81943   -5.65518
       H     2.52655  -18.24440  -11.17596
       O     3.36561  -18.48103  -11.58978
      H1     4.02210  -18.24986  -10.91359
       H    -0.42952  -17.51870    0.57967
       O    -0.12888  -16.91482   -0.13290
      H1     0.78442  -16.86115    0.07442
       H     0.15747  -18.66231  -11.69271
       O     0.71412  -18.18125  -11.10033
      H1     0.74823  -17.27862  -11.45429
       H    -5.03566  -11.77159   -4.92217
       O    -4.18015  -11.29473   -5.01135
      H1    -4.41970  -10.39077   -5.31293
       H    -1.10251  -10.85434    0.22556
       O    -0.44956  -10.40729    0.77747
      H1    -0.93211   -9.95887    1.51063
       H     0.95418  -14.15040    0.91783
       O     1.03456  -14.43215   -0.02805
      H1     0.43124  -15.17429   -0.13246
       H    -3.01528  -18.39167    1.03039
       O    -3.44677  -17.58305    0.66940
      H1    -2.65662  -17.10417    0.43732
       H    -4.09915  -18.89017   -5.18924
       O    -4.43139  -18.33451   -5.96478
      H1    -5.45281  -18.26828   -5.83892
       H     5.16649   -9.32218   -2.92750
       O     4.78369   -9.91312   -3.59484
      H1     4.23799  -10.59331   -3.18338
       H    -5.03706   -9.22276   -3.16804
       O    -4.10859   -9.33546   -2.91828
      H1    -3.77393  -10.06012   -3.45166
       H    -0.18045  -12.72329  -12.17132
       O     0.06755  -13.62581  -12.36200
      H1    -0.53530  -14.08784  -11.73910
       H    -0.69234  -15.14109   -5.63216
       O    -0.49548  -14.71578   -6.49601
      H1    -1.28483  -14.19432   -6.69946
       H    -7.26733  -17.93759   -7.18759
       O    -7.07309  -17.73218   -6.28179
      H1    -7.21730  -16.79441   -6.18594
       H     4.64093   -9.52419   -9.59706
       O     4.61360  -10.03763   -8.75510
      H1     4.08009  -10.87650   -9.01199
       H    -4.73744  -15.69692   -8.64633
       O    -4.79342  -14.70920   -8.48668
      H1    -4.51754  -14.38945   -9.31186
       H     3.95613  -12.75704   -2.70835
       O     3.83049  -12.07081   -2.06271
      H1     2.99371  -12.43447   -1.72592
       H     6.32358  -17.24354   -6.22227
       O     6.11145  -16.29804   -6.17092
      H1     5.20985  -16.36839   -5.85965
       H    -3.65482  -17.76524  -10.15128
       O    -3.71340  -17.01848   -9.55781
      H1    -2.79935  -16.95281   -9.28219
       H     0.01781  -18.82782   -8.39847
       O     0.51581  -19.27191   -7.68970
      H1     0.93686  -20.05536   -8.13371
       H    -1.59016  -18.99827   -3.36400
       O    -0.68538  -18.63451   -3.39919
      H1    -0.34968  -18.92807   -4.25647
       H     4.86863  -19.09303   -2.78316
       O     5.58370  -18.91769   -3.46816
      H1     6.10141  -18.18761   -3.00635
       H    -5.67687  -15.12811   -6.06134
       O    -6.46282  -15.27124   -5.48598
      H1    -6.05627  -15.10030   -4.62909

