180
frame 5 | Written by MDAnalysis XYZWriter (release 2.4.3)
       H   -14.09055    0.71444   -9.73103
       O   -13.67613    1.53519   -9.34655
      H1   -13.68161    2.14543  -10.14254
       H   -13.07049    4.36351  -10.83741
       O   -13.64512    3.69965  -11.29676
      H1   -14.41812    4.29380  -11.52384
       H   -11.45412   -6.13779  -18.45004
       O   -11.30481   -6.90149  -17.86724
      H1   -11.30973   -7.72143  -18.38393
       H    -6.70923    1.59378  -17.42377
       O    -7.50769    1.76949  -16.92723
      H1    -8.09188    1.00036  -17.15266
       H   -16.19238    3.50597  -13.24771
       O   -16.94122    2.85524  -13.25118
      H1   -17.02444    2.62714  -12.31811
       H   -16.48876    0.32674  -17.83946
       O   -16.68917    0.45346  -18.78399
      H1   -16.48990   -0.42923  -19.18707
       H   -16.17249   -3.17204  -15.02801
       O   -16.88898   -2.91480  -15.55750
      H1   -17.65126   -3.11546  -15.00587
       H   -12.75353   -2.13139  -16.16660
       O   -13.13229   -1.93091  -17.02508
      H1   -13.89202   -1.42059  -16.83794
       H   -18.98620    4.77209  -17.72512
       O   -19.24134    3.86373  -17.95222
      H1   -19.85230    3.65796  -17.21003
       H   -19.70542   -2.49796  -13.84951
       O   -19.04105   -3.14399  -13.55972
      H1   -18.31790   -2.58056  -13.16848
       H   -12.46878   -4.14425   -9.02375
       O   -12.17326   -3.27365   -9.34081
      H1   -12.18129   -2.77649   -8.53263
       H    -9.49728   -6.52764  -13.48326
       O   -10.23752   -7.01368  -13.21942
      H1   -10.79164   -6.99730  -13.98693
       H   -15.15532   -2.86615  -18.69021
       O   -15.86695   -3.44303  -18.91972
      H1   -16.10848   -4.04494  -18.19533
       H   -14.80837   -3.90125   -8.93092
       O   -15.79853   -3.88606   -8.99591
      H1   -16.05107   -3.14270   -8.41938
       H   -16.60264    5.49787  -14.58480
       O   -17.41414    5.98531  -14.62637
      H1   -17.96133    5.44925  -14.05597
       H   -14.58347    5.26079  -13.84834
       O   -15.12883    4.56448  -14.29959
      H1   -14.72585    4.63634  -15.16332
       H   -18.36758    3.37933  -10.56360
       O   -18.10015    2.46816  -10.72420
      H1   -18.13758    2.09475   -9.86584
       H   -17.18750   -1.02337  -12.07406
       O   -16.94107   -1.21938  -12.97321
      H1   -16.19619   -0.59506  -13.12500
       H   -19.24981    7.17179  -17.49005
       O   -18.61893    6.42167  -17.33525
      H1   -18.30656    6.50537  -16.43465
       H   -18.80549   -7.09263  -18.25839
       O   -19.10057   -7.29346  -17.33231
      H1   -18.30573   -7.85091  -17.10126
       H   -11.63161   -3.63894  -10.99074
       O   -11.26380   -4.15884  -11.71575
      H1   -11.46334   -5.06230  -11.49166
       H    -8.22133   -2.51274  -12.44897
       O    -7.92822   -1.60620  -12.58299
      H1    -7.87821   -1.51608  -13.54627
       H   -13.02724   -1.09978  -19.96609
       O   -12.72801   -1.97583  -19.79644
      H1   -12.56450   -1.98056  -18.83960
       H   -16.14654   -1.39998   -9.97585
       O   -17.09394   -1.53585  -10.28474
      H1   -17.17346   -2.46841   -9.91394
       H   -19.22022   -3.98809  -11.85732
       O   -19.35241   -4.15892  -10.93256
      H1   -19.22369   -5.10879  -10.91471
       H   -11.42131   -0.20751  -13.43304
       O   -12.26204    0.28916  -13.27831
      H1   -12.01990    1.22761  -13.02206
       H   -10.08816   -3.65343  -14.51855
       O    -9.11440   -3.75263  -14.57814
      H1    -8.93689   -3.78730  -15.55455
       H   -19.47249    1.17084  -19.38316
       O   -19.72518    0.37545  -18.87052
      H1   -19.09941   -0.21553  -19.22328
       H   -14.15775   -1.26239  -10.94423
       O   -14.33203   -1.03279   -9.99493
      H1   -13.40731   -1.05646   -9.65602
       H   -16.93155    2.14620  -16.33759
       O   -17.02485    1.36582  -15.77392
      H1   -16.95410    1.81522  -14.91467
       H   -11.88242    3.88040  -18.71227
       O   -12.20163    4.72710  -18.28524
      H1   -13.10207    4.45259  -17.90081
       H   -13.91624    3.75854  -16.59709
       O   -14.38296    4.58663  -16.88356
      H1   -15.18739    4.16445  -17.35633
       H   -15.73072   -8.19468  -18.44139
       O   -15.52400   -7.23497  -18.56893
      H1   -15.37463   -6.93510  -17.70218
       H    -8.81801    1.60750  -12.00525
       O    -8.77559    2.21726  -12.74904
      H1    -7.86846    1.95293  -13.10938
       H   -11.97329   -0.30432  -17.26385
       O   -11.48218    0.52353  -17.35780
      H1   -10.63991    0.19586  -17.08898
       H   -14.05864   -3.58196  -13.88476
       O   -14.84130   -4.07390  -14.18284
      H1   -14.43746   -4.69348  -14.76814
       H    -9.94962   -2.04824  -17.60777
       O   -10.38029   -2.91079  -17.74048
      H1    -9.65767   -3.33728  -18.18619
       H   -10.86674    5.03936  -14.43149
       O   -10.31216    4.74771  -13.72524
      H1   -10.68510    3.87569  -13.51446
       H    -9.40156   -0.58021  -13.18805
       O    -9.73957   -0.01405  -13.87622
      H1    -9.50234    0.93150  -13.55082
       H   -17.63678    3.42298  -17.78684
       O   -16.69426    3.16131  -17.56052
      H1   -16.59284    2.63005  -18.36580
       H   -17.89229   -3.25795  -19.62543
       O   -18.81429   -3.62696  -19.80675
      H1   -19.19415   -3.83293  -18.91256
       H    -8.59298    3.28170  -17.29927
       O    -8.81096    4.13646  -17.76777
      H1    -9.44105    4.60705  -17.16862
       H   -16.80639   -9.71194  -16.49371
       O   -17.34421   -8.94666  -16.18770
      H1   -16.66549   -8.24014  -16.14720
       H   -17.06706   -6.41226  -19.14731
       O   -17.83963   -6.47486  -19.70741
      H1   -18.33082   -5.64595  -19.61479
       H   -11.81897   -3.94163  -13.52157
       O   -11.99544   -3.62557  -14.39114
      H1   -12.47814   -4.30103  -14.88600
       H   -13.97674    0.56614  -13.29497
       O   -14.92729    0.64820  -13.51134
      H1   -15.25726    1.36172  -12.90184
       H   -16.09937   -6.01296  -15.26483
       O   -15.63071   -6.80349  -15.41215
      H1   -15.55309   -7.19540  -14.52626
       H    -9.05037   -0.55332  -15.48806
       O    -9.04576   -0.68777  -16.48582
      H1    -8.14085   -1.06171  -16.55847
       H   -11.29066    5.47835  -16.99426
       O   -10.60953    5.77479  -16.41822
      H1   -10.27836    6.57781  -16.87626
       H   -18.22495   -5.47636  -16.94244
       O   -17.34759   -5.10290  -17.07379
      H1   -17.32838   -4.28494  -16.54832
       H   -13.07027    2.85076  -14.18158
       O   -12.40787    2.93375  -13.51024
      H1   -12.87854    3.16559  -12.67260
       H   -13.26360   -4.90847  -17.25429
       O   -13.12889   -5.14775  -16.29262
      H1   -12.49305   -5.88246  -16.50504
       H   -11.89186    1.50366  -20.11448
       O   -11.44221    2.13209  -19.55426
      H1   -11.35759    1.56188  -18.78874
       H   -14.15136    1.26388  -15.74077
       O   -13.51014    1.97819  -15.93150
      H1   -12.86106    1.68162  -16.56263
       H   -13.30017   -5.21175  -19.73050
       O   -12.84490   -4.67245  -19.11481
      H1   -12.78466   -3.86111  -19.66739
       H   -15.63280   -4.73628  -11.20573
       O   -15.14152   -5.33121  -11.74551
      H1   -15.12416   -4.82321  -12.59439
       H   -15.95807   -1.44333  -15.94930
       O   -15.47362   -0.67952  -16.30480
      H1   -15.75329    0.04650  -15.69355
       H   -19.87501    0.32055  -17.08727
       O   -19.84794    0.41370  -16.06922
      H1   -18.85019    0.55044  -16.00348
       H   -11.62571   -9.05550  -15.23679
       O   -12.00755   -8.27472  -15.57049
      H1   -11.54450   -8.02126  -16.39727
       H   -20.03916   -6.46970  -12.33613
       O   -19.53056   -6.86424  -11.63022
      H1   -18.64669   -6.97803  -11.96932

