180
frame 7 | Written by MDAnalysis XYZWriter (release 2.4.3)
       H    -1.55149   15.88867   -1.87811
       O    -1.93526   16.46397   -1.21248
      H1    -1.24884   17.08825   -0.93085
       H    -3.27183    9.21589   -2.67405
       O    -3.88333    8.84315   -3.32468
      H1    -3.91436    9.54824   -4.02034
       H    -2.54730   11.81073   -7.70400
       O    -2.02150   10.99085   -7.71478
      H1    -1.53227   11.16391   -8.48211
       H    -3.80980   16.25381   -4.76671
       O    -2.96303   15.85514   -4.59282
      H1    -3.26348   15.14677   -3.97818
       H    -4.40671    8.43221    0.82850
       O    -3.97278    7.58882    0.54709
      H1    -3.39972    7.34006    1.26928
       H     1.65336   11.34965   -0.67558
       O     0.67660   11.17117   -0.78376
      H1     0.73438   10.35166   -1.27107
       H    -0.04054    8.72472   -7.99156
       O    -0.44333    8.51678   -7.12436
      H1    -0.95394    9.32482   -6.98258
       H    -5.18237   12.37284   -7.17973
       O    -4.26705   12.69059   -6.97910
      H1    -4.49348   13.45031   -6.39381
       H     1.96610   14.72329   -1.61555
       O     2.23180   15.63264   -1.41943
      H1     1.45355   16.11894   -1.78711
       H    -0.98868    6.69751   -3.74504
       O    -0.12306    6.33699   -3.49257
      H1    -0.41697    5.70342   -2.80271
       H    -0.06270   18.49615   -0.77253
       O    -0.28955   18.13198    0.09360
      H1    -0.96460   18.73535    0.42827
       H     3.09774   14.20786    1.02935
       O     2.89783   13.45485    1.61988
      H1     3.65419   13.71004    2.17738
       H     2.34384    6.84388    1.80176
       O     2.10838    7.42059    2.54503
      H1     1.57520    8.09523    2.09616
       H    -1.92804   10.30008    1.25010
       O    -2.34997   10.99779    1.84063
      H1    -2.30436   10.54437    2.67524
       H    -0.26191   12.97542    3.09677
       O    -0.27321   12.37776    3.94147
      H1    -1.10655   11.85128    3.90456
       H     3.85837   11.57057   -1.99513
       O     4.10349   12.02938   -2.86476
      H1     3.85195   11.32875   -3.52934
       H    -3.43619   15.44742   -0.31424
       O    -3.98290   14.72552    0.05783
      H1    -3.39059   13.96615    0.01268
       H    -6.49022    6.01283   -0.18258
       O    -5.68646    5.74967   -0.70238
      H1    -4.99505    6.27569   -0.41218
       H    -2.08889   17.22442   -4.27386
       O    -1.52790   17.99971   -4.19466
      H1    -1.13833   17.87752   -5.06689
       H    -7.52402   12.84935    1.99075
       O    -7.51919   12.18469    1.29621
      H1    -7.08883   11.50205    1.78362
       H    -4.96974   10.42049    1.99132
       O    -5.62319    9.73947    1.93267
      H1    -5.68974    9.46415    2.84503
       H    -7.89448    9.21229   -0.65913
       O    -8.79643    9.07070   -0.39095
      H1    -8.93480    9.71887    0.30373
       H    -3.82693   14.16427   -1.86367
       O    -3.55183   13.76501   -2.67578
      H1    -2.71920   13.42686   -2.35951
       H     1.29397   13.43808   -7.04694
       O     0.63909   13.73214   -7.65227
      H1     0.08046   14.30594   -7.12424
       H     3.96067   10.93120    0.03833
       O     3.26490   11.46099   -0.33693
      H1     3.17422   12.12278    0.40454
       H    -0.68983    8.35966   -0.37074
       O    -1.50412    8.73284    0.00918
      H1    -2.13733    8.00661    0.02736
       H     2.65649   13.04062   -2.82575
       O     1.75894   13.21496   -2.48175
      H1     1.56421   12.39758   -2.00428
       H    -3.76092   11.87709   -0.89898
       O    -4.56704   11.92073   -0.39093
      H1    -5.09354   12.50116   -1.00668
       H    -1.12221    5.24631    0.70784
       O    -1.77703    5.70420    1.30716
      H1    -1.48989    5.52281    2.23803
       H    -0.06307   13.59183   -2.41931
       O    -0.72412   13.98905   -3.00373
      H1    -0.78832   13.39513   -3.78046
       H     2.62297   14.46578   -4.48921
       O     2.27101   13.81130   -5.13903
      H1     1.59794   13.26518   -4.68443
       H    -1.35544   12.93131   -5.95145
       O    -1.31772   12.36236   -5.18800
      H1    -2.05353   11.76899   -5.20893
       H    -2.05765   15.43798   -7.46373
       O    -1.75670   14.85875   -6.75546
      H1    -2.22730   15.20866   -5.91585
       H    -7.49807   11.43148   -3.72775
       O    -6.68411   11.90761   -3.37700
      H1    -6.20111   11.29240   -2.79793
       H    -1.06214    8.47680    1.68541
       O    -0.89751    8.57307    2.64476
      H1    -0.78726    7.62011    2.88896
       H     2.73258    6.51740   -0.60374
       O     1.99683    6.32191   -0.02623
      H1     2.18342    5.45429    0.34897
       H    -6.95958   14.15217   -5.59942
       O    -6.05450   14.20924   -5.28214
      H1    -6.04402   13.68821   -4.48134
       H    -3.36841    7.25717   -3.44336
       O    -2.90698    6.40402   -3.23739
      H1    -3.51813    5.72316   -3.52683
       H    -0.42063    3.46832   -1.19376
       O    -0.45340    4.45560   -1.11448
      H1     0.49520    4.55767   -1.10551
       H    -4.38382   18.77126   -0.74057
       O    -3.48715   18.76188   -1.14717
      H1    -3.28871   17.80255   -1.02014
       H    -1.73894    9.98973   -1.19984
       O    -2.11408   10.64428   -1.82583
      H1    -1.42196   11.31016   -1.71478
       H    -3.33766    9.95283   -8.29836
       O    -3.95833    9.47563   -8.92369
      H1    -4.79626    9.38061   -8.50136
       H     3.55040   15.67413   -0.20095
       O     4.13349   15.62528    0.60127
      H1     4.88206   15.16459    0.19510
       H    -5.77730    9.97312   -0.66918
       O    -6.26128    9.58837   -1.42195
      H1    -5.54609    9.04651   -1.82228
       H     0.89727    7.04550   -4.78942
       O     1.40036    7.61085   -5.38985
      H1     0.70383    7.92673   -6.02777
       H    -3.87998   11.90643   -3.94386
       O    -3.80501   11.28640   -4.64490
      H1    -4.15652   11.73685   -5.44973
       H     4.49549    8.67959   -1.43068
       O     3.77565    8.05690   -1.38110
      H1     3.76492    7.53117   -2.18290
       H    -1.94546   12.27504    0.60628
       O    -1.79290   13.04069   -0.03759
      H1    -1.04133   13.42751    0.44231
       H    -4.96945   17.74580    1.14903
       O    -4.37948   17.45556    1.81225
      H1    -4.18814   16.52509    1.63791
       H     0.59536    7.79587   -2.33792
       O     1.06186    8.50881   -1.89898
      H1     1.83221    8.03845   -1.53818
       H    -7.37985   12.95691   -0.41955
       O    -7.27220   13.41523   -1.23057
      H1    -7.03146   12.69231   -1.89105
       H     0.19634    9.38595    3.58793
       O     0.93968    9.86112    4.03430
      H1     0.55667   10.74283    4.12758
       H     3.13264   15.67831   -2.87333
       O     3.55162   15.63090   -3.77906
      H1     3.15781   16.40131   -4.27690
       H    -3.24712   10.97385    5.26020
       O    -2.52755   10.62018    4.68204
      H1    -2.46053    9.68707    4.87187
       H    -6.77989   11.76326   -6.18735
       O    -6.59425   11.37195   -7.08033
      H1    -7.31795   11.76197   -7.68962
       H     0.11059   15.18859    1.79918
       O     0.22692   14.24755    1.61601
      H1     1.19845   14.11122    1.53259
       H     2.36637    9.23891   -3.22803
       O     2.87710    9.83339   -3.74629
      H1     2.87820    9.34909   -4.58523
       H     3.63513   13.28325   -6.10782
       O     4.07194   12.63007   -6.70389
      H1     3.42549   11.87059   -6.71344
       H     3.04459    8.92505   -6.97165
       O     3.30271    9.77511   -6.49621
      H1     2.44025   10.21461   -6.38584
       H     0.78717   11.57668   -7.23014
       O     1.11694   11.33939   -6.36790
      H1     0.31061   11.39705   -5.85063

