180
frame 8 | Written by MDAnalysis XYZWriter (release 2.4.3)
       H    13.66317    5.66943   15.62174
       O    13.46419    4.89151   16.22516
      H1    12.96535    4.26223   15.66789
       H    10.98158    6.74846   17.84032
       O    11.74584    6.46306   18.36705
      H1    12.01163    5.70539   17.83068
       H    17.38097    7.14601    9.72515
       O    16.42158    7.17221    9.81689
      H1    16.17033    6.74479   10.65732
       H    19.40747    5.97085   10.47343
       O    19.30057    5.80996   11.44865
      H1    19.61115    4.90075   11.55345
       H     9.26123    8.55062   16.36766
       O     9.13155    7.65491   16.69531
      H1     8.69149    7.70796   17.51295
       H     9.89312    4.33454   16.13545
       O     9.68145    3.63411   16.74360
      H1    10.52973    3.33367   17.08351
       H     8.53005    2.14632   16.38794
       O     7.84120    1.49411   16.19510
      H1     7.38533    1.73404   15.39959
       H    16.03938   -0.83295   18.22795
       O    16.82829   -0.28797   18.15003
      H1    16.55569    0.58939   18.43146
       H    11.32746   14.45731   18.87306
       O    10.37930   14.60129   19.06688
      H1    10.33297   14.76250   20.04243
       H    17.97153    0.19137   15.31485
       O    17.39010   -0.60094   15.36519
      H1    17.08102   -0.56873   16.24783
       H    12.49560   13.13735   17.40832
       O    12.91821   13.63786   18.09821
      H1    13.03344   12.93121   18.79305
       H    17.64904   11.04066   12.72844
       O    17.51580   11.08877   13.68696
      H1    18.11819   10.42319   14.12536
       H     7.63445   11.86543   18.50084
       O     7.64227   10.93741   18.85394
      H1     8.57375   10.68006   19.17054
       H    10.93682    8.93176   11.18517
       O    11.33578    9.79039   11.42255
      H1    11.40414   10.27005   10.59772
       H    11.62738    2.71326   13.71674
       O    12.07845    2.46748   14.58393
      H1    12.99044    2.37765   14.21614
       H    15.10208    2.73673   12.38243
       O    14.15997    2.95126   12.26664
      H1    13.77548    2.23006   11.72552
       H    15.02644   10.17022    9.79986
       O    15.41149    9.67954   10.55224
      H1    15.89747    8.96200   10.19057
       H    17.06199    3.48342   13.31629
       O    16.95650    3.99968   14.10757
      H1    16.42402    3.42417   14.69409
       H    10.04763    6.20521   14.44744
       O    10.57924    5.41718   14.67599
      H1    10.47748    4.89524   13.90535
       H    14.08659    9.50455   11.81854
       O    13.60033    9.30486   12.68476
      H1    12.70932    9.24645   12.33319
       H    15.89083    0.45938   14.99389
       O    14.99136    0.84592   15.03855
      H1    14.45967    0.33530   14.38759
       H    11.35074   14.17926   15.40096
       O    11.53089   13.27733   15.72055
      H1    12.03715   12.83379   15.04869
       H     8.53100    7.02625   15.31527
       O     8.10676    6.87110   14.45778
      H1     7.67452    5.98863   14.40384
       H    14.75524   14.48351   18.46028
       O    15.56616   15.09936   18.52883
      H1    15.20024   15.89706   18.95636
       H    15.24273    7.19717   18.29456
       O    15.90224    6.67255   17.85943
      H1    15.76314    6.57483   16.92120
       H     9.54094   13.03486   15.27523
       O     8.72351   13.29476   14.88905
      H1     8.00819   12.91321   15.40779
       H    19.15384   13.43460   14.49098
       O    18.27338   13.50686   14.78911
      H1    17.81917   12.92100   14.11311
       H    14.16613   11.66809   15.22147
       O    13.48162   11.41152   14.57159
      H1    13.80052   10.67137   14.02971
       H    11.08122    6.76658   10.52178
       O    10.80316    7.55842   10.05120
      H1     9.83954    7.51458   10.11414
       H    16.46286    2.64430   18.22361
       O    16.83889    2.26920   19.01861
      H1    17.77243    2.09153   18.95506
       H     8.82705   13.67815   18.08495
       O     7.91074   13.50488   17.81996
      H1     7.37692   14.26984   18.00207
       H    18.90534    8.55970   15.10420
       O    19.21486    9.44741   14.74691
      H1    19.61873    9.93122   15.48434
       H    18.27320   13.84508   16.67366
       O    18.17044   14.07110   17.64364
      H1    17.34645   14.56833   17.64734
       H    16.88791    3.18934   10.86902
       O    17.13702    2.77830   11.71801
      H1    17.05164    1.82262   11.61186
       H     9.06618   12.48400   12.99143
       O     9.24230   12.00422   12.20891
      H1     9.92363   11.40996   12.35783
       H    15.26032   15.54829   12.99937
       O    14.30026   15.39741   12.99439
      H1    14.14506   14.49436   12.67624
       H    17.28058   11.44199   19.12314
       O    16.54389   10.87541   18.86930
      H1    16.41834   10.91469   17.91208
       H    13.99158    5.95096   12.80180
       O    14.50798    5.71918   11.95764
      H1    14.54531    4.77155   12.13620
       H     8.41974    4.43015   18.28191
       O     7.66344    4.98352   18.58008
      H1     7.35984    4.58448   19.38822
       H    18.27950   10.96040   10.92501
       O    17.48118   11.39384   11.13741
      H1    16.79601   10.71598   10.98691
       H    10.84456    4.17236   11.95080
       O    10.56492    3.50172   12.60806
      H1     9.97414    2.94764   12.08690
       H     9.55768    1.74448   19.71956
       O    10.27589    1.69001   19.10927
      H1    10.97867    1.18164   19.49338
       H     9.09313    0.30661   18.36282
       O     8.37518   -0.30394   18.11363
      H1     7.96974    0.11315   17.36676
       H    15.01430    2.59683   16.07967
       O    15.58320    3.22600   16.54740
      H1    14.94426    3.93998   16.65231
       H    14.21401    8.08634   19.82763
       O    13.91413    8.16461   18.91813
      H1    13.05560    7.68206   18.90604
       H    13.90578   15.54492   15.04267
       O    14.01196   15.94169   15.91605
      H1    13.37943   15.64136   16.54203
       H    13.47257   -0.32497   17.16715
       O    14.12012    0.24310   17.59236
      H1    14.73153    0.38016   16.80192
       H     8.35336    6.66230   19.08521
       O     8.56777    7.54953   19.41206
      H1     9.34645    7.44039   19.97643
       H    18.16133    6.59220   15.60397
       O    19.06184    6.85594   15.59892
      H1    19.26109    7.20819   16.50336
       H     5.49093    7.87971   18.10351
       O     5.63779    8.82181   17.93571
      H1     6.48124    9.04655   18.37136
       H    12.11045    6.26234   14.45137
       O    12.98453    6.63283   14.35194
      H1    13.01315    7.56003   14.22219
       H    11.98934    4.30373   10.15357
       O    12.04057    4.93310   10.87085
      H1    12.90104    4.78488   11.22282
       H    16.45594    5.56660   14.64157
       O    16.41039    6.44676   15.07586
      H1    16.31432    7.15058   14.41261
       H    16.38735   11.98209   15.68046
       O    15.62897   12.06063   16.25858
      H1    15.61504   12.97756   16.58240
       H    12.26452   13.37181   11.63208
       O    13.11940   13.06589   12.00502
      H1    12.84753   12.55902   12.79235
       H     9.11061    1.00585   14.89245
       O     9.58245    0.83655   14.06515
      H1    10.44517    1.17925   14.28388
       H    15.53672    8.53728   13.14093
       O    16.50374    8.48901   13.26588
      H1    16.69452    9.41715   13.31781
       H    17.43468    9.25797   19.01390
       O    17.73567    8.30923   18.91282
      H1    17.12909    7.90392   18.26359
       H     6.90290    8.34968   14.75415
       O     6.42907    9.10748   15.09329
      H1     5.97566    8.73765   15.88462
       H    19.04646    2.02134   16.21909
       O    18.61403    1.93536   15.37847
      H1    18.16961    2.80021   15.25675

