180
frame 11 | Written by MDAnalysis XYZWriter (release 2.4.3)
       H     9.31297    8.17707    1.22212
       O     9.65248    7.74878    2.03190
      H1     9.64637    8.38541    2.75651
       H    12.00494    7.42405    7.33929
       O    12.94147    7.38991    7.03120
      H1    12.73996    7.93390    6.18843
       H    12.12032   12.92879   -0.96969
       O    11.55632   13.47392   -0.41903
      H1    11.56522   14.30561   -0.88257
       H     9.27612    9.82960    4.24981
       O     9.63372    8.94073    4.30990
      H1     8.85266    8.51674    4.75934
       H     8.28442    3.06772    5.99029
       O     7.90784    2.21488    5.79376
      H1     7.91427    2.09286    4.84748
       H     9.59858   11.72851    0.30074
       O     8.66976   11.85767    0.12998
      H1     8.48248   12.76039    0.29658
       H     3.89633    7.17398    3.02567
       O     3.47080    7.78542    3.67055
      H1     2.65892    8.12337    3.22885
       H    11.51170    4.85988   -4.21500
       O    10.81571    4.26537   -3.87266
      H1    10.99673    3.45648   -4.49008
       H    11.31632   11.28576   -2.64864
       O    12.23597   11.01149   -2.88353
      H1    12.73297   10.99419   -2.03769
       H     6.81632    6.87703   -0.02048
       O     6.60819    5.91941   -0.04339
      H1     5.65002    5.89881   -0.11828
       H     5.55599   10.28570   -1.04082
       O     5.61786    9.41867   -1.45697
      H1     5.68768    9.75662   -2.35081
       H    13.93592   12.28187    0.43380
       O    14.50932   13.08865    0.71106
      H1    13.88205   13.79762    0.82593
       H    11.81840    8.85854   -3.56955
       O    12.10827    8.02132   -3.24453
      H1    12.32140    8.21778   -2.30300
       H     4.68439   11.47320    0.52953
       O     4.03025   11.80097   -0.13439
      H1     3.77889   12.63604    0.32944
       H    10.56758    8.19011    8.56964
       O    10.45067    7.40329    8.00382
      H1    10.55090    6.62549    8.61353
       H    13.30235    7.09108    2.47281
       O    14.04124    7.46205    2.99916
      H1    14.46493    7.99726    2.33885
       H    15.70734    2.59197    2.37941
       O    16.01480    3.10036    3.16677
      H1    15.27642    3.73350    3.31509
       H     4.77682    7.26008   -3.82259
       O     4.81706    6.46883   -3.23954
      H1     5.78189    6.19463   -3.40858
       H    16.27445    9.55145    2.41459
       O    15.48304    9.89463    1.97978
      H1    15.93183   10.59099    1.38983
       H    11.91668    3.33954    0.26537
       O    11.96626    3.69298    1.19105
      H1    12.87498    3.49980    1.59331
       H    11.08174    3.36752   -1.43231
       O    11.85536    2.78729   -1.42451
      H1    12.12157    2.89900   -2.35224
       H     9.59919    4.84691    3.34903
       O     9.52714    4.40893    2.49439
      H1    10.42864    4.09136    2.33982
       H     9.16502    5.96509    5.86232
       O     9.34755    5.03712    5.72996
      H1    10.23636    4.87986    5.84474
       H     6.97850    2.31913   -0.38321
       O     7.81449    2.23021    0.10432
      H1     8.30596    3.01486   -0.21503
       H     7.40825    5.48469   -2.00699
       O     7.66496    5.26451   -2.90316
      H1     8.39541    5.84748   -3.18599
       H    11.61504   12.58960    2.23293
       O    11.54799   11.62497    1.98000
      H1    12.29133   11.32981    2.51847
       H     7.97395    6.68199    2.40356
       O     7.02900    6.38735    2.73187
      H1     6.73077    6.14188    1.79721
       H    16.27866    4.70874    2.10941
       O    16.32998    5.68026    1.88223
      H1    15.57240    6.08281    2.33101
       H    14.90318   10.39537    5.65458
       O    15.42716   10.34204    6.49952
      H1    15.48620    9.35801    6.54568
       H     4.42174    3.47782    2.81195
       O     4.93438    3.59379    1.98240
      H1     5.77016    3.10496    2.20559
       H     9.56479    4.93011    0.16524
       O     9.48650    4.40778   -0.70316
      H1     9.12719    5.02878   -1.32962
       H     8.96315   11.49123   -1.89081
       O     9.41027   11.65042   -2.72766
      H1     9.05705   11.04360   -3.45152
       H     4.02373    6.25051    1.00766
       O     4.03992    6.09536    1.93240
      H1     4.50476    5.26596    2.05808
       H    11.62896    5.51588    1.49692
       O    11.97785    6.43404    1.65865
      H1    11.13050    6.89254    1.80934
       H    16.01312    7.60022   -0.74547
       O    15.30230    6.90535   -0.69415
      H1    15.79606    6.31588   -0.08512
       H    12.35859    4.24536    7.01311
       O    12.19618    4.88527    6.26219
      H1    12.69493    5.60803    6.71084
       H    10.00647   11.42592    7.48755
       O     9.28161   11.76985    6.91241
      H1     8.76731   10.96350    6.95637
       H    10.33169    5.88627   -1.90479
       O     9.89946    6.71409   -2.05941
      H1    10.70825    7.17615   -2.38554
       H    12.57523   10.69144    0.49411
       O    13.17603   10.90558   -0.26209
      H1    13.46513   10.01648   -0.47072
       H     8.30343   13.09388    3.58840
       O     7.75757   13.90884    3.24657
      H1     6.83690   13.52240    3.33721
       H     4.35541   10.66908    5.34755
       O     5.31633   10.76903    5.22268
      H1     5.46677    9.95752    4.77865
       H     9.60310    1.01417    0.81312
       O     9.87998    0.59390    1.66003
      H1     9.04108    0.59676    2.18817
       H    11.42817    8.71718    4.44291
       O    12.37155    8.73184    4.76000
      H1    12.90554    8.25644    4.04975
       H     7.26502   11.17024    0.97283
       O     6.39706   10.79143    1.10809
      H1     6.56153   10.12466    1.77256
       H    11.28938   14.88412    2.41035
       O    12.01865   14.24258    2.25353
      H1    11.86411   14.19266    1.25939
       H    13.48843   10.15784    4.39531
       O    14.24450   10.73515    4.20032
      H1    14.68545   10.38023    3.40227
       H     8.59445    7.97060   -0.91300
       O     8.14298    8.23378   -0.10486
      H1     7.45845    8.78059   -0.40571
       H     4.55209    8.11265   -0.86163
       O     4.06198    7.27252   -0.70306
      H1     4.28683    6.81306   -1.51862
       H    12.53540    7.43609    0.17461
       O    12.78895    8.06823   -0.49308
      H1    13.60217    7.69489   -0.86147
       H     7.99658    3.46468    2.64519
       O     7.39160    2.71494    2.83266
      H1     7.27524    2.49161    1.86254
       H     6.78188   14.67025    1.09267
       O     6.84267   13.88824    0.54768
      H1     6.38508   14.15941   -0.28202
       H     7.44201    7.46455    6.79446
       O     7.70444    7.66161    5.86214
      H1     6.95499    7.34715    5.41128
       H     7.27243    8.63920    8.58782
       O     6.55944    7.94131    8.36608
      H1     6.73777    7.27609    9.06473
       H     6.48661    8.04257    3.03948
       O     6.07335    8.92684    3.19737
      H1     5.15018    8.81630    3.23937
       H     3.57273    3.99575   -0.82411
       O     4.49016    4.26467   -0.59764
      H1     4.54302    3.83539    0.31056
       H    12.98041    4.08970    4.75406
       O    13.36709    3.50645    4.05658
      H1    13.58567    2.70166    4.61318
       H     4.41659    2.10903    5.72460
       O     4.69195    2.19733    4.80819
      H1     5.60818    2.45306    4.68301
       H     4.49704    5.43199    5.85164
       O     3.89970    6.24688    6.00917
      H1     3.68149    6.52170    5.10627
       H     9.87839   11.59578    3.36562
       O     9.28421   11.68835    4.10174
      H1     9.84289   12.14797    4.75616
       H     5.80525   12.13962    2.25970
       O     5.41137   12.56316    3.02758
      H1     5.40036   11.84729    3.65819

