180
frame 2 | Written by MDAnalysis XYZWriter (release 2.4.3)
       H    15.06220    4.96091    3.68724
       O    14.61563    5.49817    4.35715
      H1    13.96369    4.90500    4.73552
       H    16.36946    8.91504   -6.03276
       O    16.65653    9.54091   -6.67122
      H1    15.90842    9.54383   -7.28489
       H    18.37212   11.41415    2.69878
       O    17.44036   11.10918    2.61852
      H1    17.42196   10.17562    3.05796
       H    14.36911    3.44090   -0.65166
       O    15.10523    3.46203    0.01133
      H1    15.67638    2.69246   -0.06673
       H    14.73788    5.93024   -8.72411
       O    15.03568    6.87291   -8.77333
      H1    15.97896    6.73179   -8.93652
       H    16.26332   10.62432    0.05778
       O    17.21141   10.47361    0.07482
      H1    17.40463   10.79196    0.98075
       H    16.92884   13.70103    1.46873
       O    17.63043   14.17321    1.94408
      H1    17.50717   13.92305    2.86890
       H    13.00364    2.52208   -6.72606
       O    12.81754    1.67041   -6.31899
      H1    13.29726    1.10378   -6.97914
       H    12.50369    6.57513   -5.93066
       O    11.93785    7.17329   -5.49300
      H1    12.56015    7.64352   -4.95333
       H    16.97583    8.85575   -0.63323
       O    16.57754    7.94020   -0.81306
      H1    16.74545    7.55061    0.07283
       H    17.16759    7.25701    2.75964
       O    17.46251    7.00064    1.83381
      H1    17.20440    6.04841    1.92357
       H    18.15432    7.76341   -8.46201
       O    17.98091    7.18174   -9.22246
      H1    17.82916    7.75984   -9.99310
       H    16.59943    7.78502   -3.60976
       O    16.29510    8.43710   -4.23092
      H1    15.33376    8.29694   -4.15658
       H    15.74589    0.44075   -3.33261
       O    15.12423   -0.32668   -3.09593
      H1    14.22424    0.05275   -3.08725
       H    13.31445    4.78061   -2.30221
       O    13.59392    3.81506   -2.44536
      H1    12.74500    3.36053   -2.59275
       H    13.80281   14.07541   -0.57610
       O    12.92158   14.27197   -0.33817
      H1    12.43451   13.55368   -0.75828
       H    15.91234    4.01542   -4.73094
       O    15.33558    3.51671   -5.32635
      H1    14.60032    3.55472   -4.68962
       H    10.50652    7.34187   -4.44133
       O     9.67301    7.57997   -3.91541
      H1     9.27601    6.70343   -3.90614
       H    10.93502   12.90545   -1.63159
       O    11.37951   12.13719   -1.14983
      H1    10.94468   12.28100   -0.27715
       H    13.98636   12.42447    1.99763
       O    14.89753   12.34067    1.63869
      H1    15.38459   11.87665    2.37257
       H    13.97203    0.69234    0.14391
       O    13.20644    1.30807    0.13286
      H1    13.63464    2.13412    0.31020
       H    13.88572    9.33995   -3.96810
       O    13.66722    8.48626   -3.65111
      H1    13.43408    8.49189   -2.70408
       H    18.77839    7.11376    5.00662
       O    19.50395    6.53241    5.30660
      H1    19.03132    5.68419    5.18145
       H    19.74912    5.34395   -6.47478
       O    19.01343    5.78620   -5.97700
      H1    18.93310    5.21905   -5.21431
       H    14.64903    5.10552   -6.17919
       O    14.40685    6.04360   -6.06406
      H1    14.60088    6.53888   -6.85069
       H    14.52186   11.44676   -0.19440
       O    14.43042   10.80564   -0.98293
      H1    13.51864   10.59084   -0.96868
       H    20.04634   15.55083   -3.54446
       O    19.22251   16.06974   -3.67917
      H1    18.59650   15.53245   -3.15091
       H    11.67960    8.17027   -7.23606
       O    11.42380    8.91550   -7.82705
      H1    11.16043    8.41923   -8.61490
       H    10.87643   12.65473   -5.07009
       O    11.28584   11.91992   -4.62193
      H1    10.50046   11.31215   -4.52852
       H    15.92391    4.10793    1.51685
       O    16.35328    4.55196    2.29406
      H1    17.04158    3.92751    2.43575
       H    11.33823    8.59444    1.73388
       O    12.15383    9.08685    1.48123
      H1    12.21260    9.12674    0.48934
       H     9.38050    4.52029    0.71950
       O     9.40392    5.40690    0.31140
      H1    10.35977    5.46244    0.35820
       H    10.73979    3.39155   -1.66234
       O    11.05569    3.13142   -2.54749
      H1    10.43532    3.57251   -3.09393
       H    16.44967   10.53775   -3.50278
       O    16.43820   11.28582   -2.84988
      H1    15.52321   11.36833   -2.42701
       H    17.09971    5.36794   -2.94301
       O    16.64760    4.56136   -3.16977
      H1    16.00842    4.52031   -2.46125
       H    14.13244    6.63737    2.20096
       O    13.62694    6.73069    1.40658
      H1    13.41881    7.70413    1.49920
       H    16.59127    2.20493   -4.27679
       O    16.98472    1.64572   -3.57067
      H1    17.91363    1.35368   -3.83597
       H    17.34205   12.23459   -6.72456
       O    17.97065   12.49667   -7.44273
      H1    18.22803   13.37648   -7.15270
       H    16.97173   13.73659   -3.32468
       O    17.68511   14.01902   -2.70141
      H1    18.11033   13.14358   -2.57656
       H    17.20375    4.39647    5.57052
       O    18.00946    4.21487    5.02388
      H1    18.23906    3.32945    5.36087
       H    10.81365    6.44533    2.37514
       O    10.68217    7.28613    2.72860
      H1     9.73552    7.26238    2.94643
       H    14.97510    7.08584   -1.26035
       O    14.16351    6.59111   -1.12919
      H1    14.27267    6.52656   -0.13712
       H    19.25458    2.93140    2.02363
       O    18.44951    2.40182    2.27786
      H1    18.81946    2.16405    3.12129
       H     9.30926    9.91531   -1.72424
       O     9.90619    9.85501   -1.00430
      H1    10.53520   10.61226   -1.10379
       H    11.82419   11.84335    2.46918
       O    12.55549   11.51496    2.98850
      H1    12.64584   10.61885    2.66847
       H    11.60584    4.18039    2.54515
       O    11.68369    4.51257    1.63969
      H1    12.31538    5.24743    1.61543
       H    18.20994   15.23056   -5.21961
       O    17.69561   14.94978   -6.00666
      H1    16.86174   14.78870   -5.54862
       H    19.77149   10.99249   -1.13010
       O    19.20404   11.59954   -1.61461
      H1    18.38837   11.13414   -1.48801
       H    19.21630    1.58280   -7.28690
       O    18.37797    1.29945   -6.87498
      H1    18.70304    1.10437   -5.91555
       H    11.41112    8.81690   -1.53711
       O    12.30309    8.49420   -1.33116
      H1    12.36573    7.56336   -1.63349
       H    15.66712   12.62625   -4.08754
       O    15.81251   13.47235   -4.45317
      H1    15.03014   13.51348   -5.08510
       H    16.25525   14.34318   -1.91783
       O    15.38712   14.57080   -1.65337
      H1    14.83450   14.26129   -2.45238
       H    13.89091   11.29120   -8.22617
       O    13.81394   10.59514   -7.52542
      H1    13.19911    9.94213   -7.88372
       H    18.31590    9.04885   -6.95832
       O    19.19120    8.54660   -7.13952
      H1    19.07319    7.80790   -6.53234
       H    12.94713   11.14433   -4.54279
       O    13.92057   11.02666   -4.69643
      H1    13.72261   10.77602   -5.60606
       H    17.96686    3.98156   -2.27544
       O    18.61502    3.68128   -1.64437
      H1    18.91964    4.45499   -1.16904
       H    18.15836    4.68171   -7.85341
       O    18.00844    3.94052   -8.39952
      H1    18.04065    3.29299   -7.67319
       H    18.59319    7.29836   -3.19780
       O    17.87449    6.85218   -2.73444
      H1    17.67255    7.45126   -2.00332
       H    17.17493    9.16584    5.06538
       O    17.53165    8.75543    4.21611
      H1    18.47355    9.05413    4.21956
       H    18.11110    2.02129    0.49034
       O    17.76491    1.61095   -0.34720
      H1    17.90314    2.25491   -1.04932

