180
frame 0 | Written by MDAnalysis XYZWriter (release 2.4.3)
       H   -18.82740  -16.41088    7.08837
       O   -19.80545  -16.18894    7.04443
      H1   -19.76565  -15.35379    7.51022
       H   -17.28578  -17.77955    6.63601
       O   -17.89320  -17.80123    5.95178
      H1   -18.53550  -18.54938    6.02061
       H    -9.06562  -14.76662    8.63518
       O    -8.42305  -14.10284    8.36811
      H1    -8.82396  -14.02000    7.49796
       H   -16.19943  -10.46046   12.56190
       O   -15.55001  -10.32209   13.25686
      H1   -15.24212   -9.43037   13.03277
       H    -5.08316  -16.02881    9.67426
       O    -6.03941  -15.81003    9.52316
      H1    -5.94400  -15.14998    8.78375
       H   -14.55987  -16.29716    5.47416
       O   -14.22799  -16.88512    6.17364
      H1   -13.54304  -16.31474    6.50715
       H   -10.40159  -16.15595    4.08610
       O    -9.77294  -15.41763    3.99912
      H1   -10.04197  -14.97166    3.19872
       H    -6.55515  -13.19095   11.34550
       O    -6.87714  -13.84065   12.01299
      H1    -6.66656  -14.70017   11.68871
       H   -11.66763  -15.24118    5.73224
       O   -12.29005  -15.02182    6.44338
      H1   -11.83120  -14.22607    6.85603
       H   -12.18359  -16.97762   17.21455
       O   -12.72221  -17.42230   17.93780
      H1   -13.35459  -16.72513   18.20162
       H   -14.08913  -13.03369   16.47568
       O   -15.04150  -12.73696   16.29476
      H1   -15.19216  -13.03852   15.37067
       H   -15.08451  -14.98035   18.73653
       O   -15.17099  -15.88061   18.33459
      H1   -15.77270  -15.69361   17.65118
       H   -17.80114  -11.83864   15.99146
       O   -17.80558  -11.46781   15.11589
      H1   -16.84243  -11.39468   14.97688
       H   -13.94034  -19.39308   19.56653
       O   -13.03564  -19.81795   19.55029
      H1   -12.70084  -19.13729   18.98142
       H   -15.28475  -18.58270    3.82873
       O   -14.63210  -19.23981    4.17034
      H1   -14.66665  -19.06805    5.14714
       H   -18.15689  -13.93080    6.23999
       O   -18.85961  -13.30745    5.98143
      H1   -18.57123  -12.53246    6.48254
       H   -11.61211  -13.11194   12.54329
       O   -11.32423  -13.34477   11.64429
      H1   -11.93131  -14.02341   11.41505
       H   -17.54784  -11.03811    9.84027
       O   -17.34476  -11.45250    9.00643
      H1   -17.56116  -10.79436    8.36308
       H   -16.84319  -14.62092    9.53685
       O   -15.95333  -14.77864    9.82559
      H1   -15.81439  -15.72676    9.82484
       H   -11.91227  -17.51139    3.19384
       O   -11.75214  -17.41584    4.17379
      H1   -12.55148  -17.84956    4.47848
       H   -18.35876  -16.24777   16.24120
       O   -18.90853  -15.49196   16.33441
      H1   -19.69402  -15.69168   15.83867
       H   -10.28815  -16.57688    9.41804
       O   -10.38987  -16.15010    8.52238
      H1   -11.26014  -15.79483    8.63974
       H   -18.63628  -10.37214   11.73648
       O   -17.78431  -10.85577   11.74382
      H1   -18.09648  -11.62771   12.21267
       H    -7.75797  -16.33430    6.71913
       O    -7.89279  -16.87568    5.95531
      H1    -8.64548  -17.48921    6.15898
       H   -17.74501  -17.83004    9.38663
       O   -17.08683  -17.56069    8.77634
      H1   -16.38041  -18.16748    9.07960
       H   -15.42430  -11.71173    9.15635
       O   -14.49785  -11.85520    8.83153
      H1   -14.44150  -12.76845    9.17218
       H   -12.04049  -19.70196    9.94801
       O   -12.12706  -19.40652   10.84972
      H1   -11.46779  -18.74379   10.90025
       H    -8.35323  -16.00112   16.37412
       O    -8.89710  -15.30850   16.81048
      H1    -8.78107  -14.56746   16.20861
       H   -15.15222  -17.64991   11.55330
       O   -15.06924  -17.10064   12.36418
      H1   -15.99961  -16.77957   12.37855
       H   -18.46937  -15.38507    9.60157
       O   -18.42704  -14.61848    9.04416
      H1   -19.25810  -14.06051    9.24761
       H   -11.90728  -14.37838   15.21859
       O   -11.70081  -14.14964   14.32120
      H1   -12.58576  -13.83933   14.00349
       H   -13.18810  -15.87230   11.45142
       O   -13.16417  -15.55899   10.54456
      H1   -14.00880  -15.00781   10.63317
       H    -9.85500  -17.90063   11.70244
       O   -10.28983  -17.33753   11.02548
      H1    -9.82595  -16.49108   11.11699
       H   -14.65373  -14.72789    3.50702
       O   -15.25341  -15.19007    4.14443
      H1   -15.56250  -14.45862    4.80813
       H   -16.53897  -17.90992   16.18639
       O   -17.27344  -17.58128   15.59190
      H1   -17.93592  -18.27371   15.74763
       H   -12.08939  -12.67618   17.17082
       O   -12.59271  -13.53197   17.16993
      H1   -12.63712  -13.76548   18.10645
       H   -14.08892  -11.24082   13.77795
       O   -13.39150  -11.43355   14.41984
      H1   -13.84310  -11.71526   15.22452
       H   -10.16246  -17.35338    7.44631
       O   -10.12141  -18.18483    6.88525
      H1   -10.92139  -18.06348    6.37691
       H   -11.34935  -12.25429    6.97959
       O   -11.80909  -12.64834    7.73192
      H1   -12.64397  -12.16525    7.66195
       H    -8.18195  -12.77709    5.30514
       O    -8.87928  -13.29860    5.69869
      H1    -9.05190  -13.99299    5.07391
       H   -15.51938  -14.12607    6.91157
       O   -15.88765  -13.53596    6.24347
      H1   -15.62497  -12.63762    6.50273
       H   -14.21617  -17.87612   17.25450
       O   -15.08937  -18.32204   17.18199
      H1   -14.79384  -19.16004   16.68035
       H   -10.28305  -16.04462   16.24679
       O   -11.08875  -16.59611   16.03278
      H1   -10.67600  -17.23898   15.43270
       H   -14.79159  -15.39949   13.25245
       O   -14.77691  -14.42072   13.31579
      H1   -15.63301  -14.08047   13.00593
       H   -18.38868  -18.76692   11.76405
       O   -18.91031  -18.39951   11.02992
      H1   -19.61848  -19.07195   10.94155
       H    -9.84228  -13.68401   14.26025
       O    -8.85777  -13.68743   14.38042
      H1    -8.55459  -13.77118   13.46183
       H   -12.62085  -17.62087    0.65711
       O   -11.89791  -17.33646    1.23165
      H1   -11.32207  -18.18874    1.27073
       H   -17.23497  -16.49779   14.27947
       O   -17.39236  -16.00192   13.40739
      H1   -18.37034  -16.09254   13.33661
       H   -17.62820  -13.39086    3.58911
       O   -17.13606  -12.62261    3.34111
      H1   -16.38387  -13.04317    2.95777
       H    -9.76543  -14.13866   11.29085
       O    -9.13950  -14.90259   11.29596
      H1    -8.36160  -14.38478   10.96530
       H   -17.48888  -14.36899   13.47025
       O   -17.36696  -13.38298   13.34661
      H1   -17.90071  -13.08295   14.10191
       H   -18.46002  -17.73017   18.24061
       O   -19.08790  -18.46857   18.14182
      H1   -19.24428  -18.51979   17.17992
       H   -14.98415  -19.58406   10.22318
       O   -14.68643  -18.63765   10.27876
      H1   -13.74050  -18.78825   10.52640
       H    -8.26209  -18.43617   16.18912
       O    -7.71126  -17.66769   16.28091
      H1    -6.91463  -18.03238   15.90148
       H    -6.52457  -19.34325    9.87014
       O    -7.19630  -18.77324   10.21164
      H1    -6.85609  -17.83044   10.29316
       H   -11.90388  -10.78742    8.50227
       O   -12.12340   -9.82524    8.44135
      H1   -12.94356   -9.87845    8.86588
       H    -6.14778  -18.56404   11.57925
       O    -5.52196  -18.21200   12.20990
      H1    -6.00566  -18.37448   12.99088
       H   -16.16815  -16.65790    3.76181
       O   -16.72546  -17.40535    3.43727
      H1   -17.04293  -17.60802    4.31928
       H   -12.76482  -15.37395    1.91444
       O   -13.42089  -14.61760    1.99273
      H1   -12.88827  -13.89412    2.33153
       H   -18.13365  -16.17642    3.02335
       O   -18.73690  -15.39290    3.02020
      H1   -19.36919  -15.69051    3.67756

