180
frame 12 | Written by MDAnalysis XYZWriter (release 2.4.3)
       H   -10.68089  -17.11800   -4.88434
       O    -9.93814  -17.14571   -5.46891
      H1    -9.29725  -17.81710   -5.17551
       H     0.65347  -16.76162   -9.65248
       O     0.39886  -17.67327   -9.81456
      H1     0.90951  -18.02931  -10.58604
       H    -0.19282  -12.75652   -6.16031
       O    -0.74310  -13.58877   -5.97854
      H1    -1.18469  -13.41174   -5.14209
       H    -0.33308  -15.85958    3.60681
       O     0.45417  -16.43832    3.67157
      H1     1.19389  -15.85002    3.43179
       H     1.04372  -11.48896   -5.07265
       O     1.20969  -11.43450   -6.03949
      H1     2.02728  -11.96743   -6.15389
       H    -5.15214  -18.18453   -3.29314
       O    -4.22679  -18.55191   -3.39322
      H1    -3.84343  -17.98454   -4.09095
       H     3.02532  -15.11398    1.82102
       O     2.65545  -15.05360    2.72636
      H1     3.28443  -15.43690    3.41480
       H     5.85860  -19.68903   -1.53615
       O     5.96553  -18.70597   -1.64374
      H1     6.10956  -18.35829   -0.78242
       H     3.84211  -14.94730   -5.22406
       O     3.43941  -15.36770   -5.98474
      H1     2.52987  -15.61059   -5.77437
       H     4.56297  -16.82686    4.10918
       O     3.88657  -17.46835    4.15935
      H1     3.67171  -17.76077    3.27282
       H    -1.91370  -13.41965   -2.72730
       O    -1.69063  -12.95245   -3.56139
      H1    -2.54115  -13.01761   -3.94442
       H    -8.12261  -19.59318   -5.50046
       O    -7.75908  -18.70224   -5.36896
      H1    -7.11988  -18.54576   -6.05017
       H     0.17574  -12.11283   -3.21587
       O     0.84629  -11.46175   -3.42147
      H1     0.35951  -10.66141   -3.20815
       H     5.81103  -17.14436   -6.87090
       O     5.64116  -17.61474   -6.07113
      H1     4.88532  -17.20308   -5.68618
       H    -5.18654  -17.15331   -7.43440
       O    -5.82421  -17.87963   -7.36087
      H1    -6.61445  -17.36778   -7.56764
       H     1.87939  -15.38012   -3.50967
       O     2.42151  -14.83132   -2.91314
      H1     2.95627  -14.22317   -3.46742
       H    -2.89944  -17.04943   -9.93769
       O    -2.95888  -18.03291   -9.86372
      H1    -2.48420  -18.33233   -9.06801
       H    -4.28078  -11.84524   -4.59999
       O    -4.18401  -12.76250   -4.84490
      H1    -4.95061  -13.10786   -5.28059
       H     7.74920  -18.91584   -4.36091
       O     7.21065  -19.56640   -3.81110
      H1     6.62909  -19.10011   -3.15849
       H     4.50774  -17.16808    0.56505
       O     5.25881  -16.58534    0.29931
      H1     4.82627  -15.76377    0.12030
       H     4.24692  -12.64885   -5.93349
       O     3.53685  -12.76377   -6.54535
      H1     3.39148  -13.70493   -6.78511
       H     6.07294  -13.74207   -4.02180
       O     5.22799  -14.06932   -3.49918
      H1     5.36851  -14.93452   -3.11414
       H    -6.80856  -17.74555    3.50217
       O    -6.20560  -16.97540    3.78500
      H1    -6.74320  -16.17671    3.72552
       H    -4.27794  -12.37342    2.51521
       O    -3.87456  -13.23857    2.26168
      H1    -4.61090  -13.84902    2.08353
       H    -3.07126  -16.85359    4.68518
       O    -3.35217  -17.72624    5.01125
      H1    -3.38431  -17.63376    6.00578
       H    -1.32320  -19.81887   -3.52732
       O    -0.74082  -19.29669   -2.91725
      H1    -1.37503  -18.56842   -2.62726
       H    -8.95217  -16.05118   -4.61864
       O    -8.29355  -15.44778   -4.30842
      H1    -8.77707  -14.72337   -3.94334
       H    -3.91745  -15.07279   -7.61961
       O    -4.27154  -15.84145   -7.16536
      H1    -4.99191  -15.36033   -6.63613
       H    -1.62062  -14.16228   -1.29337
       O    -2.57769  -13.95894   -1.23820
      H1    -2.96697  -14.85579   -1.17524
       H    -1.66478  -13.46468   -9.20571
       O    -1.12295  -13.74959  -10.00894
      H1    -1.08623  -12.89972  -10.46103
       H     2.97607  -18.52410    0.41576
       O     3.43278  -18.50707    1.24966
      H1     4.18092  -19.12244    1.09810
       H    -6.95560  -18.16453   -3.89890
       O    -6.78221  -17.67005   -3.05617
      H1    -6.94584  -16.72710   -3.32858
       H     3.50286  -17.93287   -8.80237
       O     3.77703  -18.51114   -8.12510
      H1     3.62475  -17.96666   -7.37973
       H     2.50309  -14.91581   -0.60643
       O     3.11200  -14.68668    0.11095
      H1     3.53311  -13.90556   -0.18271
       H     0.20340  -13.99000   -0.43165
       O     0.09588  -14.39644   -1.28593
      H1     0.83658  -14.02820   -1.80071
       H    -3.37442  -16.39849   -5.95139
       O    -2.93362  -16.81969   -5.16461
      H1    -2.09796  -17.25692   -5.49493
       H    -1.31180  -10.85182    2.09562
       O    -1.50086  -11.70524    2.58922
      H1    -2.29291  -12.08010    2.25450
       H    -2.38474  -13.55788   -7.24626
       O    -2.91582  -13.64860   -8.06983
      H1    -3.31400  -12.75409   -8.18792
       H    -2.42683  -15.44912    2.60901
       O    -2.24217  -15.51084    3.51963
      H1    -2.51174  -14.62486    3.86592
       H    -5.10860  -13.94451   -3.62820
       O    -5.69272  -14.16780   -2.88869
      H1    -5.06100  -14.42084   -2.17112
       H    -3.36987  -17.79784    2.55065
       O    -3.91670  -17.24706    1.96693
      H1    -4.72181  -17.01545    2.46387
       H    -8.07538  -12.39124   -1.85261
       O    -7.11036  -12.18507   -1.97195
      H1    -6.62643  -12.96798   -2.32323
       H     4.91625  -17.14153   -2.32079
       O     4.54652  -16.52307   -2.96144
      H1     3.71785  -16.15371   -2.57164
       H    -4.32338  -11.91567   -0.11200
       O    -3.51934  -11.51947   -0.44726
      H1    -3.03716  -12.32035   -0.68041
       H    -0.13643  -12.45959    1.78375
       O     0.62696  -12.98321    1.35752
      H1     1.21637  -12.30099    1.02351
       H    -3.68784  -16.49049   -1.02824
       O    -4.38528  -15.78610   -0.92109
      H1    -4.72660  -15.79906    0.00754
       H    -3.08972  -18.06843   -1.92838
       O    -2.48054  -17.65122   -1.30236
      H1    -2.41843  -18.37607   -0.62282
       H     0.98263  -17.75053   -0.01976
       O     1.32873  -17.47558   -0.85747
      H1     0.75268  -16.69324   -0.96296
       H    -6.24543  -13.54536    0.64736
       O    -6.26328  -14.43260    0.95976
      H1    -6.69228  -15.03594    0.35231
       H    -8.46226  -16.25270   -0.40184
       O    -8.38871  -15.35835   -0.73978
      H1    -7.73252  -15.36702   -1.43526
       H    -0.06136  -17.96852    2.26872
       O    -0.19429  -18.46617    1.44153
      H1     0.32746  -19.28444    1.35830
       H    -0.37142  -18.65531   -4.79642
       O    -0.60514  -18.28427   -5.67080
      H1    -0.37456  -18.98836   -6.24580
       H     0.38087  -16.56195    6.82049
       O     0.02344  -17.27496    6.25231
      H1     0.27915  -16.95715    5.32277
       H     2.04638  -14.47497   -9.99405
       O     1.34356  -14.92922   -9.54720
      H1     0.51101  -14.45860   -9.76385
       H    -8.20165  -19.15684   -0.28538
       O    -8.19932  -18.24103   -0.68350
      H1    -7.80084  -18.35916   -1.57411
       H     0.30644  -16.70481   -5.85578
       O     0.84629  -15.92666   -5.81293
      H1     0.13004  -15.25185   -5.84861
       H    -7.00631  -14.75902   -5.25030
       O    -6.54718  -14.55912   -6.11367
      H1    -7.09068  -13.94564   -6.55437
       H    -4.77060  -18.79513  -10.12770
       O    -5.73247  -18.79502   -9.96447
      H1    -5.84275  -18.56459   -9.02171
       H     3.04252  -19.06024   -4.45516
       O     2.72901  -18.13622   -4.36171
      H1     3.26754  -17.73885   -3.64485
       H    -4.17898  -10.11037   -3.10027
       O    -3.76630  -10.30746   -3.93058
      H1    -3.10050  -10.90329   -3.68992

