180
frame 5 | Written by MDAnalysis XYZWriter (release 2.4.3)
       H    15.37075    3.94128    3.71008
       O    15.04744    4.52385    4.40887
      H1    14.40396    4.04941    4.88359
       H    16.77064   -5.99633   -4.15411
       O    17.26645   -5.18104   -3.87846
      H1    17.71714   -5.60145   -3.16243
       H    14.52731    1.89111   -0.49501
       O    14.68024    1.09815    0.01999
      H1    15.58936    0.82413   -0.24961
       H    15.95555    7.11898   -9.04581
       O    16.51927    6.96545   -8.28642
      H1    16.84484    6.07069   -8.38805
       H    16.03523   10.20598   -0.66229
       O    16.91946    9.79802   -0.45982
      H1    17.23678   10.40447    0.27920
       H    13.51753    2.48078   -7.84225
       O    12.94602    1.78507   -7.49119
      H1    12.80786    1.30175   -8.31434
       H    15.42721   -0.31348    4.60804
       O    15.37836   -1.28860    4.34505
      H1    15.67523   -1.40632    3.45880
       H    14.17454    6.97085   -4.94550
       O    13.36676    7.27304   -4.53045
      H1    13.71018    7.62722   -3.69371
       H    16.92155    7.88006   -0.08653
       O    16.78041    6.91796   -0.04169
      H1    17.15577    6.68205    0.83025
       H    17.70578    7.03394    2.68047
       O    18.09990    6.17452    2.32092
      H1    17.99387    5.62765    3.11525
       H    18.83264    0.82554  -10.68230
       O    18.31588    1.61460  -10.90039
      H1    19.03412    2.22936  -10.72631
       H    16.81404    9.55314   -5.01041
       O    16.03615   10.01994   -4.75731
      H1    15.57477    9.42347   -4.10548
       H    17.58638   -1.46442  -10.20675
       O    18.53676   -1.08610  -10.28821
      H1    19.13450   -1.76376  -10.48755
       H    15.36050    0.95885   -2.95613
       O    15.78295    0.10390   -2.74729
      H1    15.23492   -0.45553   -3.39433
       H    13.64451    4.07967   -1.17151
       O    13.30591    3.13401   -1.33462
      H1    12.39647    3.30625   -1.66150
       H    14.85742   -2.87695    1.73577
       O    15.36862   -2.05950    1.50603
      H1    14.81292   -1.70067    0.79848
       H    18.95124   -3.64368   -6.06252
       O    18.00866   -3.90485   -6.19418
      H1    17.70957   -4.33430   -5.38723
       H    12.48133    6.43199   -7.49813
       O    13.16943    6.23871   -8.12665
      H1    13.87025    6.08457   -7.50256
       H    14.39914    2.56957   -5.07804
       O    14.56968    2.68341   -4.11084
      H1    13.81783    2.96296   -3.59202
       H    11.71561    6.73267   -4.88397
       O    10.98279    6.56079   -5.53844
      H1    10.79543    5.64598   -5.37436
       H    18.77082   -3.64965   -1.51472
       O    19.14368   -2.75306   -1.25435
      H1    18.64504   -2.17395   -1.93738
       H    16.94860    0.84970   -9.69665
       O    16.43363    0.49113   -8.92274
      H1    17.00792    0.74421   -8.17160
       H    13.24503   -1.61895   -1.20454
       O    14.12786   -1.74728   -0.85003
      H1    14.54041   -0.89802   -1.15895
       H    17.05803   -2.85223    1.37517
       O    17.94308   -3.25779    1.28059
      H1    18.20361   -2.92475    0.46788
       H    11.91762    0.92278   -1.38953
       O    11.64847    0.73984   -0.52469
      H1    11.58517    1.63175   -0.11318
       H    13.91919   10.11828   -2.94908
       O    14.33820    9.22051   -2.82272
      H1    14.17691    9.17777   -1.88103
       H    17.47073    0.11161   -6.26199
       O    17.86620   -0.73310   -6.03564
      H1    17.10582   -1.32324   -6.08460
       H    16.07030   -1.38172   -9.37052
       O    15.97266   -2.00800  -10.10891
      H1    16.26714   -2.73856   -9.59799
       H    15.52729    5.65189   -5.13121
       O    15.20366    5.97789   -5.96284
      H1    15.98201    6.40851   -6.33152
       H    15.24870    2.16001    1.42759
       O    15.57652    2.82018    2.07158
      H1    15.96456    2.19568    2.73836
       H     9.95868    3.57933   -2.08602
       O    10.84001    3.39719   -2.48469
      H1    10.65307    3.63541   -3.41331
       H    16.38088    6.22006   -2.77975
       O    15.67668    5.56633   -2.87233
      H1    15.31573    5.80765   -2.01559
       H    13.74250    3.62303    1.61323
       O    13.22454    4.40460    1.46921
      H1    13.21298    4.74956    2.39720
       H    16.67425    2.80541   -3.09515
       O    17.30786    2.53872   -2.38155
      H1    18.00510    2.20907   -2.98628
       H    18.87292   -3.29467    3.07331
       O    19.33086   -2.96551    3.81784
      H1    19.47081   -1.99101    3.55074
       H    11.48843    1.02945   -6.62494
       O    10.93117    0.51633   -5.98968
      H1    10.39223   -0.03926   -6.62210
       H    14.57208   -2.50935   -7.14930
       O    15.37711   -2.12360   -6.98124
      H1    16.06510   -2.80923   -6.76298
       H    18.33897    3.52654    3.57407
       O    18.08730    4.24059    4.13673
      H1    17.81939    3.84779    4.98010
       H    15.08358    6.19161   -0.15644
       O    14.29008    5.98678   -0.64287
      H1    13.69582    5.62018    0.08127
       H    19.29959    2.51095    1.57165
       O    18.57373    2.16758    2.07216
      H1    18.98150    1.41674    2.54078
       H    11.17648   -1.19663   -2.36771
       O    11.34674   -1.98184   -1.83980
      H1    11.77072   -2.67010   -2.32357
       H    12.71338   -2.13383   -4.55011
       O    12.02936   -2.84024   -4.47443
      H1    11.79353   -3.00900   -5.38319
       H    10.33899    2.70692    1.32602
       O    10.85010    3.04458    0.53264
      H1    11.51891    3.52762    1.07449
       H    18.22561    4.48634  -10.59236
       O    19.09046    4.44561  -10.16798
      H1    18.87812    4.41416   -9.23114
       H    16.06903   -4.30683   -2.49278
       O    15.30024   -4.17839   -1.96853
      H1    15.29282   -3.27504   -1.64199
       H    19.79340   -5.14496   -2.08096
       O    18.88897   -5.53244   -1.89297
      H1    18.79343   -5.41523   -0.95942
       H    14.80898   -1.30947   -5.58146
       O    14.32749   -0.68932   -4.94687
      H1    13.80075   -0.25510   -5.58705
       H    18.51328    2.04619   -7.39692
       O    17.80440    1.82158   -6.79935
      H1    18.26147    2.01071   -5.96087
       H    19.39503    2.84652   -4.14138
       O    18.98842    2.04684   -4.51460
      H1    19.75714    1.43272   -4.63646
       H    12.60885    8.49489   -0.46764
       O    13.45198    8.46889    0.03300
      H1    13.85778    7.66733   -0.40889
       H    17.42912   -0.64230   -2.84364
       O    18.06890   -1.29763   -3.13855
      H1    18.26813   -0.93441   -4.03111
       H    17.68374    8.00430   -7.45721
       O    18.33860    8.57529   -6.99233
      H1    18.80081    7.85498   -6.54886
       H    11.45966    1.33580   -3.17485
       O    11.77922    0.42292   -3.30616
      H1    11.58875    0.39468   -4.29233
       H    14.27616    4.17366   -9.83780
       O    14.63606    3.68181   -9.04717
      H1    14.88202    2.85278   -9.46713
       H    19.44658   -1.49707   -8.70161
       O    19.72712   -1.48823   -7.75836
      H1    18.95107   -1.32164   -7.27626
       H    17.99131    4.25848   -1.74156
       O    18.61958    4.97325   -1.98030
      H1    19.05608    5.04209   -1.08798
       H    18.39592    4.44777   -6.67310
       O    18.08305    4.44202   -7.59605
      H1    17.43033    3.71738   -7.51930
       H    13.30445    0.12215    1.53357
       O    12.92715   -0.23598    2.31396
      H1    13.58123   -0.94394    2.34548
       H    18.70351    7.89721   -3.46559
       O    17.92397    7.28023   -3.39265
      H1    18.33042    6.55012   -2.96393
       H    17.50430    1.26737    0.77439
       O    17.22940    0.82022   -0.03257
      H1    17.27210    1.52049   -0.73866

