180
frame 0 | Written by MDAnalysis XYZWriter (release 2.4.3)
       H   -14.96674   14.72064    4.70422
       O   -14.19833   15.09385    5.18236
      H1   -13.61365   15.04607    4.43560
       H   -12.46922    8.70330   -3.25641
       O   -12.03956    7.99491   -2.74377
      H1   -11.57873    7.58322   -3.44869
       H   -11.56473   10.10209    0.52765
       O   -11.98388   10.75312    1.10192
      H1   -12.55527   11.27967    0.49550
       H   -14.32874   10.53105    6.78345
       O   -15.10834   10.42896    7.32771
      H1   -14.73053    9.72005    7.86331
       H   -14.17755    6.94405   -4.22125
       O   -14.02003    5.94736   -4.27615
      H1   -13.85534    5.68487   -5.22959
       H   -14.96307   13.10352    2.99257
       O   -15.72201   13.43214    3.52762
      H1   -16.15552   13.84888    2.73624
       H    -5.23978   12.29684    0.09743
       O    -5.64245   12.40833   -0.76817
      H1    -6.41591   11.82219   -0.71848
       H   -12.25719   11.10556    9.30990
       O   -11.72087   10.39764    8.89068
      H1   -12.03871   10.21324    8.00195
       H   -11.20518   13.87488   -2.56779
       O   -10.30834   14.18054   -2.47900
      H1    -9.94629   13.38096   -2.08944
       H    -9.05718   14.97139    3.49340
       O    -9.12573   14.09243    3.12534
      H1    -8.39999   13.63331    3.53167
       H    -6.43035    8.41813    0.83939
       O    -7.28179    8.29223    0.41451
      H1    -7.69698    7.64960    0.95182
       H   -10.38947    8.20587    0.23045
       O   -10.50469    8.92173   -0.41117
      H1   -10.96040    8.57800   -1.17356
       H   -15.20633    7.73155    4.59965
       O   -15.36365    7.30440    5.44956
      H1   -14.81173    7.86836    5.98774
       H   -10.48556   10.53013   -1.49432
       O   -10.74473   11.21089   -2.17244
      H1    -9.97362   11.16019   -2.83619
       H   -11.83520    6.51732    3.07307
       O   -11.69154    7.17626    2.32287
      H1   -12.19638    6.69856    1.63002
       H   -12.23910   10.00506   -6.53968
       O   -12.03984    9.08710   -6.25432
      H1   -11.22896    9.23738   -5.77320
       H   -17.48950    9.99881    3.57693
       O   -18.27763    9.77620    3.04949
      H1   -17.89620    9.34425    2.28587
       H    -7.88028    9.92678    0.32760
       O    -8.16193   10.89643    0.22047
      H1    -8.60133   11.05264    1.04697
       H   -16.76022    9.02182   -1.61344
       O   -15.81289    8.89137   -1.96703
      H1   -15.91655    9.03886   -2.90984
       H    -8.19338    8.40150    3.87376
       O    -9.12946    8.56468    3.81914
      H1    -9.18558    9.34774    3.23271
       H    -6.00615    8.71120    5.08299
       O    -6.28910    8.50788    4.15058
      H1    -6.39812    9.39380    3.72664
       H    -9.69989    6.42490    2.16177
       O    -8.87258    6.38469    1.67809
      H1    -8.90870    5.48891    1.29146
       H    -8.14178   10.65717   -4.53990
       O    -8.19896   11.25037   -3.76155
      H1    -7.23093   11.18810   -3.44997
       H   -19.21442   12.33611    0.00917
       O   -18.71948   12.92007    0.59107
      H1   -17.77406   12.67820    0.28886
       H    -9.47634   11.91526    2.79809
       O    -9.58741   11.01771    2.40167
      H1   -10.43559   11.09340    1.84737
       H   -14.78237    8.75378   -0.70303
       O   -13.92546    8.81952   -0.17759
      H1   -14.25495    8.98310    0.72123
       H   -15.49731   12.12528   -0.42229
       O   -16.00468   12.77939    0.04911
      H1   -16.09031   13.46514   -0.64645
       H   -12.32377   15.36874    2.40953
       O   -12.14359   15.70640    3.29110
      H1   -12.80846   16.48438    3.22638
       H    -6.90082   12.92281    4.85209
       O    -6.96720   11.99864    4.52540
      H1    -7.76218   11.56204    5.06936
       H   -10.34591   15.57335   -3.61068
       O   -10.06214   16.35372   -4.10811
      H1   -10.68462   17.00357   -3.78481
       H   -12.37600   11.78711    6.11440
       O   -12.66625   10.84896    6.25821
      H1   -12.57792   10.44164    5.35698
       H   -16.10937    4.29857    1.15240
       O   -15.13989    4.23632    1.04830
      H1   -14.88890    5.17726    1.08727
       H   -13.00636   10.00434    2.93468
       O   -12.98313    9.41440    3.68648
      H1   -12.54616    8.64223    3.24295
       H   -15.43777   11.18873    1.42301
       O   -15.51176   10.25242    1.63068
      H1   -15.77246   10.30628    2.57613
       H    -9.08265    8.37648   -5.30325
       O    -9.70742    8.94547   -4.74285
      H1    -9.43065    8.65098   -3.83297
       H   -15.92438   16.30490   -1.64945
       O   -15.92296   15.29303   -1.70856
      H1   -15.10021   15.15063   -2.26439
       H   -17.74092    8.18223   -0.22359
       O   -17.74928    9.17269   -0.23360
      H1   -17.08928    9.35492    0.42164
       H    -9.00547   12.02308    7.04195
       O    -9.27453   12.17592    6.12831
      H1    -9.76498   11.37299    6.02545
       H    -9.55877   15.84186    4.89635
       O    -9.55529   16.44525    4.13880
      H1   -10.43360   16.23977    3.74633
       H   -16.57801    6.71812    3.46068
       O   -16.13241    7.22784    2.78433
      H1   -16.56758    7.00585    1.99653
       H   -17.01910    5.84543   -0.48345
       O   -17.48143    6.27564    0.26440
      H1   -18.29097    5.73945    0.21213
       H   -10.68748   15.24646   -1.12729
       O   -11.17493   15.50186   -0.32983
      H1   -11.05514   16.45390   -0.46551
       H    -7.74468    7.63395   -2.39637
       O    -8.68287    7.65375   -2.38601
      H1    -8.87301    7.85365   -1.45892
       H    -9.79920    7.01873    5.00755
       O   -10.57370    6.45706    4.85330
      H1   -11.17748    6.58977    5.59162
       H   -13.01326    5.91649   -0.31212
       O   -13.36534    6.34810    0.44913
      H1   -13.48436    7.29995    0.09711
       H   -14.94715   11.55278   -5.09899
       O   -14.80872   11.42470   -4.14291
      H1   -14.47894   10.50884   -4.05362
       H   -12.30443   13.76165   -5.39124
       O   -12.03951   13.80693   -6.31663
      H1   -11.02726   13.63814   -6.31573
       H   -14.06043    6.27022    5.29704
       O   -13.54782    5.41503    5.37742
      H1   -13.88241    4.89555    4.61236
       H   -13.88492   13.22690    1.40166
       O   -13.72615   12.75068    2.18849
      H1   -12.76411   12.57467    2.16235
       H    -9.55664    9.22460    5.25795
       O    -9.85717    9.50921    6.14362
      H1    -9.43956    8.87924    6.76443
       H   -13.52844    8.80602   -5.33178
       O   -14.31383    8.83513   -4.79763
      H1   -15.03446    8.76059   -5.51341
       H   -12.76236    4.06780   -2.21240
       O   -12.62225    4.98234   -2.01105
      H1   -13.20241    5.42924   -2.59787
       H    -9.59967   15.70642    0.67860
       O    -8.64531   15.53258    0.90549
      H1    -8.77415   14.86252    1.63888
       H   -14.48634   15.22178   -0.29677
       O   -13.85818   14.98951    0.37605
      H1   -12.99713   15.12422   -0.04865
       H   -17.84113   11.31354   -3.60430
       O   -17.25094   11.85841   -3.02661
      H1   -16.37244   11.73213   -3.28752
       H   -11.04320    5.23185   -2.90344
       O   -10.31057    5.63890   -3.35206
      H1    -9.88044    6.28148   -2.76033
       H   -13.55465   10.43677   -0.74234
       O   -13.80209   11.37967   -0.78361
      H1   -13.50569   11.69128   -1.63619
       H   -12.74995   13.67593    5.87761
       O   -12.09796   13.39504    6.55377
      H1   -11.28115   13.30720    6.08999
       H   -13.43717   14.22743   -4.01785
       O   -12.78123   13.51628   -3.81848
      H1   -13.44667   12.87845   -3.71858
       H   -16.12553   11.83356    4.42697
       O   -16.06780   10.88150    4.39896
      H1   -15.69639   10.72877    5.27367

