180
frame 8 | Written by MDAnalysis XYZWriter (release 2.4.3)
       H     7.60842  -18.43700  -10.74977
       O     6.82880  -18.14273  -11.23414
      H1     7.30196  -17.73700  -12.03406
       H     0.52938  -12.83451   -5.29490
       O     1.00550  -13.59091   -4.95627
      H1     0.92614  -13.45228   -3.99469
       H    -1.38138  -12.57613   -7.74260
       O    -1.83720  -12.89866   -8.52687
      H1    -2.30475  -12.09663   -8.76245
       H     1.14343  -17.44346  -10.43309
       O     1.76568  -17.92818   -9.91106
      H1     1.45743  -17.73787   -8.99315
       H     3.62315  -19.20148  -15.47473
       O     4.33747  -19.64040  -14.97925
      H1     4.94929  -18.91765  -14.82715
       H     3.70483  -17.74197   -8.16073
       O     4.67629  -17.86248   -8.26229
      H1     4.84314  -18.37494   -9.01678
       H     1.72773  -19.13699   -6.05969
       O     2.00352  -19.05649   -7.01434
      H1     2.42143  -19.91720   -7.17879
       H     4.94551  -15.79442  -12.74718
       O     4.08873  -16.13079  -12.50590
      H1     4.12826  -16.06828  -11.56382
       H    11.24038  -15.89825   -8.57427
       O    11.14639  -15.39330   -7.76652
      H1    10.36878  -15.83777   -7.43342
       H     2.54089  -14.10855  -10.86820
       O     2.21946  -13.25405  -11.23546
      H1     1.95014  -13.55238  -12.07443
       H     8.42856  -15.97477   -4.35205
       O     9.19196  -16.17723   -4.92097
      H1     9.57980  -15.25908   -4.87700
       H     7.95284  -16.67889   -7.56623
       O     8.17587  -17.63351   -7.49097
      H1     8.46288  -17.61458   -6.54228
       H     7.62991  -18.16293  -13.87289
       O     7.04246  -18.39597  -14.61281
      H1     7.54732  -19.05517  -15.16239
       H     8.16379  -11.92003   -5.76076
       O     7.29988  -12.36748   -5.73552
      H1     6.78691  -11.59609   -5.88151
       H    -0.11658  -15.78445  -11.45530
       O     0.00760  -16.68495  -11.77470
      H1     0.63132  -16.68033  -12.48965
       H     2.40721  -12.49583   -9.51618
       O     2.09126  -12.66160   -8.64846
      H1     2.55900  -13.51113   -8.54156
       H     3.37361   -7.94819   -6.27686
       O     3.22411   -8.06660   -7.24141
      H1     3.38647   -8.97719   -7.36666
       H     6.91179  -15.56219   -2.74559
       O     7.22723  -14.95040   -3.39341
      H1     6.57631  -15.05665   -4.14917
       H     8.99427  -16.94969   -9.92855
       O     9.27327  -16.20935  -10.47659
      H1    10.23350  -16.18212  -10.41083
       H     3.30647  -17.36522   -4.44603
       O     3.39095  -16.48689   -4.08792
      H1     3.29869  -15.89173   -4.83878
       H     0.90144  -18.33923  -14.42341
       O     0.25132  -19.04976  -14.57675
      H1     0.18272  -19.48778  -13.73617
       H     9.04418  -16.62414  -12.15582
       O     8.74511  -16.83065  -13.05750
      H1     8.63948  -15.92751  -13.46049
       H     0.84576  -11.13943   -8.97538
       O     0.31040  -10.32798   -9.04265
      H1     0.86304   -9.84590   -9.64646
       H     0.53661  -15.39284   -8.53802
       O     0.92982  -15.95343   -7.88289
      H1     0.12655  -16.12515   -7.37984
       H     2.37770   -8.36826  -10.91578
       O     2.23582   -9.28795  -10.65821
      H1     2.45246   -9.64899  -11.53360
       H    -1.44561  -11.70481   -5.64142
       O    -0.85294  -11.75295   -6.42099
      H1    -0.12636  -11.15412   -6.22250
       H     6.89022  -15.22654   -9.63314
       O     6.50455  -15.56550  -10.44114
      H1     6.50788  -16.52164  -10.29167
       H     9.77164  -11.98456   -7.07041
       O     9.74242  -11.24048   -6.45291
      H1    10.10252  -10.54985   -6.99656
       H    -2.38319  -14.38721  -13.19585
       O    -1.62877  -13.80571  -13.00822
      H1    -1.47976  -13.90010  -12.07203
       H     8.63152  -14.34446   -8.07701
       O     7.91111  -14.91949   -8.02160
      H1     7.36134  -14.54790   -7.32089
       H     6.69366  -18.58059   -5.86167
       O     5.69518  -18.40745   -5.76898
      H1     5.37959  -18.36356   -6.69669
       H     9.78126  -19.43640   -9.56025
       O     8.87712  -19.13380   -9.64047
      H1     8.78325  -18.57756   -8.82397
       H     2.76383  -16.66323  -16.07088
       O     3.02390  -17.38645  -16.70673
      H1     3.97207  -17.08315  -16.89686
       H     3.19342  -11.67677   -5.39540
       O     3.92563  -12.19373   -5.70096
      H1     4.43687  -12.27734   -4.86418
       H     3.29662  -13.92016   -6.24027
       O     3.23073  -14.79774   -6.67687
      H1     2.28575  -14.94596   -6.82272
       H     1.32182  -15.64427  -14.03646
       O     1.50684  -16.63753  -13.96072
      H1     2.34218  -16.62081  -13.54264
       H     8.91505  -13.49262  -14.45719
       O     8.76091  -14.28218  -13.90555
      H1     7.91715  -14.03602  -13.51065
       H     1.78831  -18.69135  -11.70370
       O     2.35404  -19.14255  -12.38204
      H1     3.24855  -18.96259  -12.01379
       H     6.28878  -14.49688  -11.94308
       O     6.27046  -14.35706  -12.89829
      H1     5.89089  -13.48234  -12.95191
       H     0.04956  -14.07295  -13.67204
       O     0.90683  -14.19575  -14.02613
      H1     0.94554  -13.74889  -14.89498
       H    10.51772  -12.51799   -9.27965
       O    10.04720  -12.93289   -8.51584
      H1    10.62322  -13.70928   -8.39761
       H     6.90497  -11.17802  -12.06053
       O     7.52518  -11.58682  -12.68950
      H1     8.00497  -12.23189  -12.07150
       H     2.03728   -9.88565  -14.19792
       O     2.01655  -10.19857  -13.25168
      H1     1.05932  -10.06283  -13.08161
       H     0.55797  -13.96450  -10.46109
       O    -0.31756  -14.36446  -10.38068
      H1    -0.77628  -13.72332   -9.81571
       H     9.95308  -13.96291  -12.44231
       O    10.81649  -13.52254  -12.26750
      H1    11.25903  -14.14530  -11.71129
       H     5.04737   -7.52031   -8.34617
       O     5.68793   -7.87403   -9.03475
      H1     5.17035   -8.55009   -9.40587
       H    -1.57743  -17.35802   -6.09499
       O    -0.91043  -16.71354   -5.90374
      H1    -1.47333  -16.09577   -5.40382
       H     6.24332  -13.01128   -2.90583
       O     5.88599  -12.33948   -3.50642
      H1     6.42914  -12.49103   -4.27047
       H     3.48295  -10.19762   -9.28257
       O     3.90176  -10.46300   -8.48160
      H1     3.21949  -10.99148   -8.03467
       H     5.34399  -16.36959   -5.71796
       O     5.62972  -15.50302   -5.87160
      H1     4.83506  -15.06590   -6.21545
       H     4.23520  -15.46973   -9.36757
       O     3.35136  -15.28458   -9.70354
      H1     2.92221  -16.12720   -9.58179
       H    -1.63378  -10.43888  -11.49872
       O    -0.68401  -10.39071  -11.78425
      H1    -0.26184  -10.45718  -10.90950
       H    -2.18365  -19.50938   -7.06344
       O    -1.73741  -18.90505   -7.71839
      H1    -0.96738  -19.50016   -7.70326
       H     6.90378   -9.71961   -8.56969
       O     6.61519  -10.46202   -7.99555
      H1     5.63120  -10.53277   -8.16676
       H     0.51112  -15.71364   -4.01074
       O     0.87034  -15.90654   -3.12266
      H1     1.79650  -16.06833   -3.44509
       H     9.09169  -13.27368  -10.40843
       O     8.31003  -13.36012  -11.01072
      H1     8.11330  -14.30360  -10.89889
       H     5.90446  -16.28169  -16.05217
       O     5.43501  -16.47274  -16.88800
      H1     6.07019  -17.02737  -17.28546
       H     3.42194  -12.93524  -12.70348
       O     3.73700  -12.34573  -13.41096
      H1     3.11912  -11.55900  -13.34634
       H     6.81875  -12.96176   -9.87192
       O     5.99165  -12.68281   -9.45309
      H1     6.23185  -12.42629   -8.54619
       H     4.65238  -11.32887  -12.25608
       O     5.09682  -10.75787  -11.58181
      H1     5.13312  -11.38360  -10.85534

