180
frame 4 | Written by MDAnalysis XYZWriter (release 2.4.3)
       H     1.02020    4.20808   -9.41894
       O     0.38505    4.54010   -8.71651
      H1    -0.22440    5.10461   -9.28239
       H    -4.67861   10.06229   -4.42655
       O    -4.92311    9.13406   -4.44956
      H1    -5.85478    9.26714   -4.71803
       H    -6.60185    2.27456   -5.57208
       O    -6.61647    3.24445   -5.56352
      H1    -6.20978    3.42501   -6.41940
       H    -7.50531    0.77061   -8.04288
       O    -7.95512   -0.08708   -8.28907
      H1    -8.72680   -0.21336   -7.67694
       H    -5.03446    7.62072   -1.86688
       O    -5.85566    7.34417   -1.40818
      H1    -5.89697    7.71958   -0.51815
       H     2.06013    1.63284   -9.72225
       O     1.98841    2.45917  -10.20699
      H1     1.48752    2.16336  -11.02018
       H    -3.06031    3.79271  -13.15059
       O    -3.43238    4.19503  -13.91109
      H1    -4.25822    4.49312  -13.61981
       H    -1.62227    4.16756   -4.26871
       O    -0.67126    3.90449   -4.35111
      H1    -0.25211    4.64284   -3.90857
       H    -2.55443    8.09234  -12.10153
       O    -1.67505    8.27832  -11.77314
      H1    -1.79586    9.15144  -11.33543
       H     0.25674    8.47909   -7.82831
       O    -0.19128    8.14236   -7.00310
      H1    -0.32607    8.97311   -6.55619
       H    -3.74354    4.13070   -3.64991
       O    -3.29710    4.77581   -4.21540
      H1    -3.48331    4.40968   -5.12683
       H     0.01767   -3.02066   -6.65472
       O     0.65437   -3.11530   -5.90782
      H1     1.02948   -4.03578   -6.20085
       H     3.68961    2.84930  -10.52410
       O     4.73034    3.00167  -10.49917
      H1     4.79145    3.89886  -10.88115
       H    -2.58493    0.29762   -4.62419
       O    -2.30138   -0.28094   -3.90466
      H1    -1.40651    0.08159   -3.77180
       H    -0.04402    5.09178  -12.47230
       O     0.58866    5.17116  -11.75489
      H1     1.06482    4.31044  -11.97711
       H    -3.66781   -0.66937   -2.33672
       O    -4.06884   -0.80344   -1.48725
      H1    -4.25950    0.07168   -1.11833
       H    -5.63597    3.63875   -2.52466
       O    -5.29684    2.91903   -3.03078
      H1    -5.58051    3.15804   -3.92397
       H    -0.96219    6.66864   -3.57894
       O    -0.16079    6.33283   -3.22444
      H1    -0.46076    5.80741   -2.45136
       H     1.61105    8.57894   -9.63738
       O     0.66015    8.43238   -9.52861
      H1     0.57816    7.70465  -10.13757
       H    -2.60079    4.29479  -10.72356
       O    -2.67015    3.40437  -11.13620
      H1    -3.06226    2.97189  -10.35279
       H     0.73184    2.68257  -13.05800
       O     1.71056    2.93210  -13.08045
      H1     1.59657    3.71404  -13.60966
       H    -6.72066    9.07844  -11.17729
       O    -6.06774    8.77977  -10.57715
      H1    -6.60048    8.11170  -10.06216
       H    -1.05688    1.23348  -12.52908
       O    -0.59069    1.95458  -12.14982
      H1    -1.33885    2.46086  -11.76447
       H    -7.11550    7.97751   -7.71617
       O    -6.87910    7.34363   -8.41964
      H1    -6.08226    6.85530   -8.12195
       H    -7.01867    4.74290   -0.88229
       O    -6.06244    4.70434   -1.15626
      H1    -5.89671    5.66461   -1.30602
       H     1.59674   -0.84295  -10.09552
       O     0.88868   -0.47635  -10.60905
      H1     0.34370   -1.27283  -10.73313
       H     1.98508   -1.97931   -6.98800
       O     2.94995   -1.92047   -7.21227
      H1     3.34473   -2.77673   -6.90455
       H    -1.24770    5.24118   -0.76005
       O    -2.12867    5.44561   -0.47486
      H1    -2.01305    5.50608    0.48186
       H    -2.56373   -1.95320   -4.62349
       O    -3.16106   -2.59773   -5.10781
      H1    -3.95426   -2.00806   -5.32804
       H    -1.45863   -2.42517   -8.83130
       O    -0.86123   -2.22933   -8.05939
      H1    -0.81123   -1.25518   -7.96013
       H     5.57618    2.32190   -5.98087
       O     5.85842    3.18797   -6.30359
      H1     5.07615    3.76788   -6.32280
       H    -3.84228    7.95486   -3.51046
       O    -3.25898    7.54325   -2.83382
      H1    -3.26409    6.63485   -3.22347
       H     1.02150    4.04979   -0.72754
       O     0.68650    4.90803   -0.45600
      H1     1.45485    5.12974    0.12577
       H    -6.37956    2.12103   -2.08066
       O    -7.14192    1.63359   -1.71854
      H1    -7.04224    1.52764   -0.78281
       H    -3.35113    1.38066   -6.67960
       O    -3.53790    1.20859   -5.74569
      H1    -4.47148    0.89523   -5.72273
       H    -0.57670    1.50145   -7.98525
       O    -0.85518    0.69102   -8.49450
      H1    -0.23530    0.73378   -9.26473
       H    -4.35446    5.14289   -8.09662
       O    -5.13730    4.86924   -8.57669
      H1    -4.97812    5.20745   -9.50683
       H    -4.69216   -0.03022  -12.38649
       O    -4.19180    0.55544  -11.85210
      H1    -4.91941    1.26040  -11.71480
       H    -4.83663    3.90100   -0.20115
       O    -3.99749    3.40331    0.10639
      H1    -3.24323    3.94968   -0.17453
       H    -3.48253   10.20823   -8.99066
       O    -3.85500    9.33040   -8.86294
      H1    -4.45069    9.30530   -9.65818
       H    -5.98031    5.36237  -11.88606
       O    -5.29329    5.36476  -11.21279
      H1    -4.69571    6.08669  -11.42418
       H    -0.04760    3.34445   -7.43730
       O    -0.44414    2.75844   -6.82255
      H1    -0.44221    3.17882   -5.99656
       H     0.67675    6.41940   -4.75249
       O     1.20639    6.29308   -5.61527
      H1     0.71329    7.00577   -6.12135
       H    -6.27817    3.52270   -8.72954
       O    -6.92879    2.80595   -8.78716
      H1    -7.64269    3.29545   -9.21226
       H     2.10079   -1.24188   -4.52511
       O     2.47573   -0.37954   -4.79608
      H1     3.12308   -0.67274   -5.46428
       H    -1.92535    7.17189   -7.19981
       O    -2.77182    6.79377   -7.50829
      H1    -3.22233    7.60631   -7.77803
       H    -2.18349    7.06957  -10.80019
       O    -2.34796    6.26023  -10.32309
      H1    -2.17498    6.71200   -9.45776
       H    -2.10628    3.58601   -6.85188
       O    -2.91432    4.11419   -6.75125
      H1    -2.64371    5.02682   -7.00695
       H     1.22916    1.17161   -4.11730
       O     0.47424    1.42570   -3.54401
      H1     0.35244    2.32880   -3.79343
       H     4.47931    0.08113   -9.37345
       O     3.56736    0.38460   -9.20917
      H1     3.40865    0.20068   -8.25140
       H     1.19490    7.67325   -3.03024
       O     1.38868    8.48905   -2.47954
      H1     2.16602    8.17997   -1.95130
       H    -2.60879    0.52018   -9.26831
       O    -3.54095    0.57880   -9.16432
      H1    -3.81809    0.43894  -10.09896
       H    -3.72989   -1.39274   -9.47147
       O    -3.79906   -2.33137   -9.63642
      H1    -4.23897   -2.27585  -10.54480
       H     0.50478    0.97658   -1.89537
       O     0.47293    0.68929   -0.91695
      H1     1.28094    0.13045   -1.04226
       H    -5.58321    3.59468  -11.37492
       O    -5.86687    2.66063  -11.42189
      H1    -6.16564    2.51817  -10.52476
       H    -5.89526   -0.72035   -5.83032
       O    -6.00314    0.19211   -5.36353
      H1    -6.62955   -0.05434   -4.63336
       H    -8.36371    3.94438   -5.36041
       O    -9.26279    4.12682   -5.04978
      H1    -9.33528    5.07170   -5.23471
       H     2.85133    8.15656   -7.06629
       O     2.77805    8.82852   -6.35596
      H1     2.51310    8.33068   -5.58583
       H    -5.30564   -2.81226   -7.40626
       O    -5.89195   -2.14788   -6.95263
      H1    -6.55567   -2.78698   -6.56949
       H     2.47391    5.39327   -6.80374
       O     3.28368    5.07756   -7.24864
      H1     2.92384    4.83446   -8.11352

