180
frame 6 | Written by MDAnalysis XYZWriter (release 2.4.3)
       H    18.75410   18.32856  -17.65362
       O    19.37324   18.08499  -18.31972
      H1    18.95380   18.38680  -19.14205
       H    15.76695    9.02384   -6.70408
       O    14.99072    9.53309   -6.35152
      H1    14.68171    9.06277   -5.52970
       H    12.31269    9.57643  -13.73635
       O    12.07599   10.51607  -13.80252
      H1    12.85397   10.99377  -14.20867
       H    12.95990   11.45834  -17.85015
       O    13.47467   12.28869  -17.72472
      H1    13.58892   12.27160  -16.79324
       H    16.77833   13.35862  -16.56089
       O    16.90544   13.01226  -15.65554
      H1    16.90572   13.81207  -15.03528
       H    19.00335    4.65016  -10.11361
       O    18.78755    5.57157  -10.53843
      H1    19.17475    5.51115  -11.44709
       H    17.06875   15.04224   -4.42627
       O    16.30429   15.56046   -4.69255
      H1    15.86617   14.92717   -5.26179
       H    17.82185   15.70237   -7.41261
       O    17.47775   16.54660   -7.14730
      H1    17.07236   16.49031   -6.30110
       H    17.77475   16.80527  -13.27064
       O    18.25288   16.97626  -12.42227
      H1    18.65109   16.12801  -12.13896
       H    13.38536   12.81420   -4.69587
       O    13.72251   13.72754   -4.70526
      H1    12.91484   14.10579   -4.29082
       H    14.05388   12.08724  -11.66386
       O    14.31128   12.67661  -12.38024
      H1    13.80982   13.50311  -12.10801
       H    15.99922   12.46968  -12.04220
       O    16.93925   12.21270  -12.11876
      H1    17.36065   12.58846  -11.30874
       H    14.46838    9.63796   -8.22621
       O    14.88927    9.25609   -9.03002
      H1    14.28127    9.58204   -9.67798
       H    15.93343   14.62622   -8.92430
       O    16.35904   13.88226   -8.46160
      H1    16.93348   13.54199   -9.16019
       H    17.68565   15.55422  -15.35385
       O    17.36921   16.31315  -14.79585
      H1    16.41729   16.27205  -14.66775
       H    17.46961   11.22975   -2.69401
       O    16.92189   10.67181   -3.33362
      H1    15.97141   10.71700   -3.12368
       H    11.79478   17.54137   -9.95112
       O    12.28685   16.76283   -9.69184
      H1    12.43916   16.01071  -10.32811
       H    18.88929   10.57164   -7.55637
       O    19.27450   10.29131   -8.42713
      H1    18.44827   10.17708   -8.96214
       H    16.65028    7.01983   -5.49399
       O    16.81152    6.77169   -4.56553
      H1    16.67998    5.80035   -4.51360
       H    10.63438   12.06813  -10.31490
       O    10.42447   12.91809  -10.86190
      H1    10.29241   12.64916  -11.75974
       H    12.34699   10.76661  -10.85539
       O    13.16126   10.85588  -10.36212
      H1    12.87347   10.96415   -9.47413
       H    18.42446   12.18524  -15.27516
       O    19.26744   12.15406  -14.86530
      H1    19.44430   11.29849  -14.46811
       H    11.17555   18.51741   -6.80327
       O    11.43782   18.42488   -7.70627
      H1    11.87844   17.56454   -7.64269
       H    17.03412   18.10649  -11.64553
       O    16.54788   18.97500  -11.44998
      H1    15.57167   18.86061  -11.61994
       H    17.43246   10.50075  -17.94703
       O    16.58222   10.91089  -18.11753
      H1    16.66495   11.87265  -18.12864
       H    14.17150    8.04860  -12.93726
       O    13.25027    7.82867  -13.12060
      H1    12.82917    7.79682  -12.29922
       H    17.75405   11.59771   -5.69986
       O    17.54592   10.90348   -6.30847
      H1    16.59727   10.76004   -6.16727
       H    14.78792    8.78469  -16.24255
       O    14.99581    9.70526  -15.94660
      H1    15.43831   10.05803  -16.73862
       H    18.90013    9.74576  -19.26020
       O    19.07470    9.63913  -18.30478
      H1    19.98680    9.58762  -18.31959
       H    15.43519   18.85031  -16.33380
       O    14.47814   18.92586  -16.26439
      H1    14.16388   19.16495  -17.15109
       H    14.50005   11.46744  -15.29449
       O    14.00168   12.19067  -14.91836
      H1    14.53020   12.41339  -14.06204
       H    17.67123   19.39811   -9.53545
       O    18.09944   19.33937   -8.70414
      H1    18.18239   18.41832   -8.57387
       H    13.04666   12.30646   -7.79874
       O    12.59184   11.40891   -7.77604
      H1    11.66163   11.67495   -7.69829
       H    10.49939   14.16818   -7.88060
       O    10.65266   15.11866   -7.71890
      H1    11.54780   15.21962   -8.08455
       H    13.10091   16.43414  -13.97122
       O    12.27718   16.23048  -13.47287
      H1    11.50861   16.44032  -13.98224
       H    18.64403   11.85222   -9.67523
       O    18.42141   12.76653   -9.94350
      H1    19.25493   13.26184  -10.19753
       H    17.78206   17.80336  -15.77159
       O    17.96060   18.62288  -16.23118
      H1    18.44566   19.23024  -15.64602
       H    18.20397   13.28590   -1.93923
       O    17.95999   12.52995   -1.44212
      H1    17.45624   12.65427   -0.61647
       H    16.23325    9.14945  -11.58618
       O    15.81498    8.79717  -12.35228
      H1    16.42856    8.21458  -12.80917
       H    14.47826   16.74674   -9.29710
       O    15.22979   16.15507   -9.24445
      H1    15.82291   16.54230   -8.60535
       H    11.61524    6.79086  -10.43229
       O    12.01689    7.65854  -10.56471
      H1    12.75032    7.63206   -9.96789
       H    16.31358    9.99888   -9.81697
       O    17.11386   10.12460  -10.33486
      H1    16.90931   10.72061  -11.01839
       H    14.04130   13.99010   -6.58572
       O    13.70358   13.90240   -7.48413
      H1    14.54409   13.84204   -7.99999
       H    16.94130    6.65007   -7.35000
       O    16.77544    7.60162   -7.29435
      H1    17.39333    7.98458   -7.93913
       H    12.62199   10.92366   -5.83878
       O    12.72242   11.08370   -4.92738
      H1    11.98016   10.78898   -4.43797
       H    13.55000   19.45612   -5.94972
       O    14.14900   18.78571   -5.65161
      H1    13.90559   17.93235   -6.07302
       H    17.82328    9.24882   -3.14141
       O    18.28624    8.37392   -2.98737
      H1    18.08902    7.83201   -3.71780
       H    19.85862   15.05765  -14.11842
       O    19.30754   14.60435  -13.49252
      H1    19.31129   13.67435  -13.77005
       H    17.71996    6.51134  -15.44293
       O    17.64630    6.81583  -14.51708
      H1    17.88384    7.71508  -14.72655
       H    11.82423   14.19478  -11.07083
       O    12.60709   14.69987  -11.35332
      H1    12.40820   15.10150  -12.19297
       H    14.42784   17.20345  -15.73031
       O    14.61666   16.40807  -15.14996
      H1    14.35016   15.66943  -15.66454
       H    15.32961    7.56930   -4.22027
       O    14.41618    7.99320   -4.31609
      H1    14.30323    8.70384   -3.70870
       H    14.51307    7.36636   -8.57487
       O    13.96373    6.55410   -8.77354
      H1    14.51140    5.95131   -9.26025
       H    17.25043    9.90483  -13.90649
       O    17.45036    9.75359  -14.81999
      H1    16.52570    9.77420  -15.18656
       H    17.63283   18.64535   -3.89369
       O    18.57706   18.88918   -3.87656
      H1    18.62770   19.32877   -4.74695
       H    17.00774    5.37533  -10.37840
       O    16.03962    5.19916  -10.34769
      H1    15.65549    5.37516  -11.25122
       H    15.22508   18.40747   -4.11746
       O    15.85523   18.01029   -3.50704
      H1    15.90337   17.11020   -3.88535
       H    16.04371   14.23813  -18.66732
       O    16.65101   13.70821  -18.14177
      H1    17.49936   14.08092  -18.38901
       H    19.51099   13.43049   -4.17313
       O    18.96680   14.13488   -3.89560
      H1    19.55393   14.90936   -3.88353
       H    13.27596   15.39037   -7.06521
       O    13.13566   16.30592   -6.76077
      H1    12.47750   16.22787   -6.05190

