180
frame 1 | Written by MDAnalysis XYZWriter (release 2.4.3)
       H    10.43180   12.57868  -17.19092
       O    10.71342   13.01573  -16.40585
      H1    11.65411   12.76908  -16.27242
       H    10.28096    2.43961  -18.92230
       O     9.75570    2.91867  -19.59684
      H1    10.38569    3.41714  -20.09981
       H    14.21728   -0.42204  -19.67678
       O    14.22425    0.08552  -18.83288
      H1    15.00958   -0.11957  -18.28572
       H    15.36596    4.71744  -19.93118
       O    14.78129    5.17030  -19.23800
      H1    15.55456    5.42312  -18.64917
       H    11.67957    4.79042  -17.06574
       O    10.96134    5.27770  -16.54729
      H1    10.22350    4.61296  -16.55331
       H    15.92067   11.95745  -13.37749
       O    16.65252   12.44312  -12.94050
      H1    16.04794   13.00184  -12.40522
       H    14.14440    4.31179   -8.78126
       O    14.78583    5.09545   -8.99637
      H1    15.59407    4.50613   -8.98997
       H    11.16513    8.53671  -13.01376
       O    10.42864    7.95532  -12.90367
      H1    10.86835    7.22259  -13.37333
       H    18.95533    0.51359  -11.69285
       O    19.22928    1.23498  -12.30013
      H1    20.00093    1.59578  -11.81144
       H    17.49931    7.21074   -8.35343
       O    17.28777    6.53928   -9.03141
      H1    16.34869    6.43884   -9.01793
       H    10.44031    9.45568  -16.53779
       O    10.83782    9.26681  -17.42086
      H1    10.48648   10.00035  -17.93569
       H    13.28379    7.97127  -19.00317
       O    13.10047    7.42416  -19.80758
      H1    13.70319    6.68527  -19.57723
       H    16.22459    9.52888  -14.57618
       O    16.11542   10.12656  -15.34453
      H1    17.07224   10.43933  -15.47574
       H    17.99219    7.39610  -17.24252
       O    18.41339    6.83316  -16.58039
      H1    19.31522    6.98480  -16.84578
       H    13.60180    4.60557  -17.86146
       O    13.21319    4.12794  -17.14038
      H1    12.97257    3.26884  -17.51213
       H    17.78151    2.04314  -11.52799
       O    16.89369    2.26162  -11.10861
      H1    17.11230    2.68002  -10.28187
       H    16.75667   13.40951  -14.60365
       O    16.78839   13.80510  -15.52050
      H1    15.98221   13.37995  -15.81343
       H     9.48654    6.47584  -16.85712
       O     8.99780    7.25891  -16.66768
      H1     9.55988    7.95629  -17.09476
       H    14.39558    8.16554  -14.43426
       O    13.90766    8.98818  -14.43173
      H1    14.46132    9.62915  -14.98403
       H    10.19796    0.98375  -10.94111
       O    10.67138    1.60922  -11.49841
      H1    10.90230    2.32599  -10.85433
       H    14.75848    4.88933  -13.96236
       O    14.38645    5.80184  -13.98967
      H1    13.41332    5.74081  -14.14269
       H     8.13242    3.32042  -16.17369
       O     8.45394    4.22803  -16.20275
      H1     8.06673    4.58516  -17.01252
       H    16.61685    5.15921  -12.75716
       O    17.37846    5.68290  -12.42116
      H1    17.96699    5.49298  -13.18342
       H    11.42600    5.86283  -14.89977
       O    11.67042    5.89187  -13.97842
      H1    11.35783    5.05448  -13.59871
       H    16.75193    8.54719  -18.97536
       O    17.56148    8.34480  -18.56797
      H1    18.10283    9.17113  -18.63749
       H    14.38051   13.59342  -17.57000
       O    14.91753   14.36424  -17.41141
      H1    15.36236   14.52019  -18.27055
       H     7.86103    6.09237  -11.28780
       O     8.87348    6.06421  -11.37260
      H1     9.07346    6.87739  -11.87000
       H    12.41945    1.36370  -11.70086
       O    13.29616    1.31282  -12.06632
      H1    13.73543    0.59955  -11.56971
       H    15.44384    2.38005  -17.11996
       O    15.92939    1.64582  -16.85359
      H1    15.53215    1.26218  -16.04504
       H    12.93443    6.16909  -11.97400
       O    12.76690    5.53633  -11.27243
      H1    13.62248    5.48212  -10.74435
       H    17.77007    4.17914  -18.64721
       O    17.30451    4.49998  -17.84148
      H1    17.90040    5.22635  -17.60435
       H     9.71282    9.18075  -14.58632
       O     9.68925   10.11616  -14.92215
      H1    10.48207   10.48143  -14.50009
       H    18.01392   -0.58927  -18.33667
       O    17.07829   -0.41155  -18.34828
      H1    16.94228    0.30572  -17.75045
       H    16.54915    6.48747  -16.10448
       O    15.63055    6.73711  -16.31584
      H1    15.18210    6.25670  -15.63420
       H    12.63991    1.20256  -18.24922
       O    11.96561    1.80657  -17.93795
      H1    12.07995    1.52884  -17.00112
       H    18.65416    4.87732  -11.55575
       O    19.23393    4.49664  -10.84865
      H1    18.49899    4.32579  -10.16005
       H    12.68281    9.07988  -17.24739
       O    13.60524    8.88321  -17.37033
      H1    13.96379    8.44225  -16.61061
       H    18.29542   11.70906  -12.55963
       O    19.22112   11.44338  -12.44400
      H1    19.19176   10.44512  -12.45405
       H    19.68939    7.62182  -11.52198
       O    19.32467    8.48289  -11.82822
      H1    18.69066    8.20499  -12.52084
       H     9.60020    4.40794  -12.17633
       O     9.98176    3.86130  -12.90723
      H1    10.23213    2.97713  -12.52462
       H    10.84307    1.11256  -14.55405
       O    10.49189    1.67448  -15.26219
      H1    10.34140    2.51747  -14.78176
       H    18.40243   11.89930  -16.98111
       O    18.65748   11.19996  -16.34037
      H1    19.13162   11.75381  -15.71515
       H    13.25916    0.59422  -13.68839
       O    12.82480    0.03253  -14.32023
      H1    13.59196   -0.29656  -14.88480
       H    15.60858   -0.63292  -14.86150
       O    15.02548   -0.80764  -15.60513
      H1    15.55541   -1.41089  -16.16498
       H    15.81002    8.79826  -12.76233
       O    16.41002    8.26877  -13.28128
      H1    16.74616    7.55015  -12.73882
       H    17.73440    2.38727  -15.59482
       O    17.86785    3.29366  -15.23456
      H1    17.57847    3.84274  -15.96480
       H    10.19193    4.82910   -9.72773
       O    10.75983    4.13133  -10.12298
      H1    11.44481    4.69899  -10.49930
       H    12.20609   11.38713  -13.07349
       O    11.72984   10.67014  -12.67704
      H1    11.07144   10.97194  -12.03517
       H    19.24487    4.57646  -14.85062
       O    19.60807    5.46635  -14.45379
      H1    19.52408    6.03636  -15.24739
       H    14.02953    9.55014  -12.87481
       O    14.63312    9.76776  -12.10033
      H1    13.97662    9.99443  -11.42521
       H     8.72452    5.72557  -18.91783
       O     8.09052    4.98040  -18.83398
      H1     8.58582    4.17924  -19.14462
       H    17.64396    4.62893   -8.24826
       O    17.34607    3.70952   -8.60221
      H1    17.57503    3.23335   -7.79548
       H    15.26254    0.95967  -12.64895
       O    15.83692    0.37372  -13.22330
      H1    16.51784    0.17347  -12.53147
       H     9.49243   11.19515  -19.74576
       O    10.13485   11.37962  -19.04672
      H1    10.96367   11.34569  -19.56320
       H    18.45039    2.04543  -19.89193
       O    18.67684    2.95056  -19.64528
      H1    19.30783    2.75073  -18.89223
       H    16.78428    3.21550  -13.86626
       O    16.00663    3.52176  -13.45759
      H1    16.15379    3.32930  -12.52542
       H    13.78030   11.47391  -17.10149
       O    13.31369   12.26655  -17.31173
      H1    13.26200   12.18625  -18.26203
       H    19.61994    0.22137  -16.33768
       O    18.94716    0.41198  -15.66637
      H1    19.33916    0.75468  -14.87522
       H    11.11476    6.09009  -18.03545
       O    10.80568    6.28591  -18.97002
      H1    11.47559    6.89608  -19.27996
       H    13.59917   13.40480  -13.48835
       O    12.85124   12.96164  -13.90824
      H1    12.07205   13.35979  -13.46064

