180
frame 6 | Written by MDAnalysis XYZWriter (release 2.4.3)
       H     8.46038  -18.57373  -11.24316
       O     7.58635  -18.40030  -11.62134
      H1     7.81403  -18.13603  -12.57543
       H    13.25395  -14.58082  -10.91102
       O    12.64127  -15.00330  -11.57708
      H1    12.93258  -15.91957  -11.41916
       H     0.94551  -16.18266  -10.68994
       O     0.88845  -16.55233   -9.74684
      H1     1.05577  -15.73701   -9.18312
       H     4.93084  -18.29928  -15.20587
       O     4.83716  -18.40808  -14.26352
      H1     5.78447  -18.34750  -13.99013
       H     3.24245  -17.04848   -9.06168
       O     3.99981  -16.55766   -9.35684
      H1     4.60110  -17.31975   -9.65199
       H     3.70750  -19.87288   -7.10131
       O     3.43778  -18.94769   -7.20395
      H1     2.52573  -18.94974   -6.87458
       H    -2.48351  -16.38440  -14.94636
       O    -1.99338  -16.39794  -15.79841
      H1    -1.13249  -16.75871  -15.60529
       H     4.14129  -16.43962  -12.12218
       O     3.15513  -16.61134  -12.15080
      H1     3.00785  -16.74256  -11.17762
       H    11.46025  -17.30545   -7.12130
       O    11.36507  -16.37624   -7.31488
      H1    10.71286  -16.11110   -6.68533
       H     3.38548  -13.66565  -12.35469
       O     3.00657  -13.20525  -13.11012
      H1     2.51046  -14.00836  -13.45440
       H     0.08506  -17.65156  -18.62924
       O    -0.40870  -18.47425  -18.29585
      H1     0.35504  -18.85085  -17.72396
       H     1.96303  -13.14442  -17.74985
       O     2.75497  -13.04556  -17.18224
      H1     3.49748  -13.20370  -17.82402
       H     8.68230  -15.77768   -4.27439
       O     9.46405  -15.66336   -4.83832
      H1     9.80400  -14.80728   -4.56608
       H    11.34489  -14.42542  -15.22612
       O    12.22070  -14.87399  -15.39333
      H1    12.90351  -14.17602  -15.25848
       H     7.74906  -16.07789   -7.60293
       O     8.34846  -16.75523   -7.24471
      H1     8.64259  -16.31028   -6.44153
       H     8.45256  -17.67795  -14.27328
       O     7.59314  -18.13986  -14.29301
      H1     7.85833  -18.96023  -14.80338
       H     8.23678  -12.06636   -6.70339
       O     7.37856  -12.40682   -7.02260
      H1     7.19238  -11.67911   -7.65062
       H     0.11039  -15.83431  -12.40991
       O     0.21626  -16.78198  -12.65907
      H1     1.09177  -16.78512  -13.06611
       H     3.00418  -12.84491   -8.65464
       O     2.30996  -12.23905   -8.23071
      H1     2.68035  -12.13274   -7.33405
       H     7.03174  -15.65184   -2.23318
       O     7.41617  -15.32270   -3.06973
      H1     6.55131  -15.27647   -3.55780
       H    10.24057  -16.44046  -10.80836
       O    10.09617  -15.68581  -11.41452
      H1    11.03270  -15.38424  -11.56981
       H     1.45986  -16.93830   -3.51650
       O     2.38627  -16.66329   -3.45019
      H1     2.29372  -15.93663   -4.16564
       H     0.66591  -18.45351  -15.32179
       O    -0.30205  -18.57402  -15.05502
      H1    -0.35703  -18.10248  -14.24637
       H    10.10748  -17.08909  -12.78202
       O    10.13860  -17.80123  -13.44836
      H1    10.97587  -17.65226  -13.91984
       H     1.55603  -14.02464   -7.71123
       O     1.35247  -14.94986   -7.61363
      H1     0.51294  -15.07789   -7.16895
       H     6.18857  -15.58717  -10.99057
       O     5.95203  -16.07422  -11.79254
      H1     6.31282  -16.95977  -11.64874
       H     9.51168  -19.57772  -18.76805
       O    10.00586  -19.26246  -17.93135
      H1    10.36263  -18.44061  -18.27749
       H     7.10403  -14.35839   -7.92852
       O     6.51304  -15.18538   -8.03521
      H1     6.10169  -15.19938   -7.10127
       H     6.94199  -17.74520   -7.15707
       O     6.34801  -18.45806   -6.98898
      H1     5.51496  -18.03578   -7.18969
       H    10.54598  -18.20946   -9.54103
       O     9.61359  -18.02962   -9.66525
      H1     9.35568  -17.78954   -8.76247
       H    -1.59422  -18.74789   -9.51127
       O    -0.74029  -18.77870   -9.08654
      H1    -0.32957  -18.01954   -9.55312
       H     2.66794  -16.95137  -16.60976
       O     2.88201  -16.70436  -17.51171
      H1     3.76390  -16.23782  -17.41825
       H     2.03416  -14.08576   -4.82983
       O     2.77422  -14.59334   -5.25510
      H1     2.43619  -14.81363   -6.11183
       H     1.99609  -16.05249  -14.91735
       O     2.23431  -17.01172  -14.96374
      H1     3.05091  -17.10085  -14.45963
       H     9.45561  -13.25588  -16.04166
       O     9.70940  -13.60586  -15.14859
      H1     9.36794  -12.94726  -14.54538
       H     1.20874  -19.14795  -11.87664
       O     2.17653  -19.22712  -11.93007
      H1     2.45950  -18.29208  -11.79040
       H     6.24533  -11.22441  -16.66704
       O     6.04840  -12.11627  -16.33186
      H1     5.42337  -11.90293  -15.51418
       H     8.88301  -15.47309  -15.86167
       O     8.10997  -15.95418  -16.24191
      H1     7.56124  -16.16421  -15.46751
       H     6.14521  -15.40293  -13.34881
       O     6.01995  -14.86985  -14.17620
      H1     6.49083  -14.05865  -14.07296
       H     0.46187  -13.52964  -15.15674
       O     1.20024  -14.24208  -15.03747
      H1     1.85358  -13.89450  -15.69674
       H    11.26412  -12.79306   -8.49136
       O    10.62976  -13.48805   -8.51074
      H1    11.08727  -14.28541   -8.30700
       H     7.55408  -11.77638  -13.36916
       O     8.43474  -12.07437  -13.02395
      H1     8.26456  -12.19436  -12.03962
       H     9.09879  -16.50112  -19.24010
       O     9.07178  -15.66856  -18.77046
      H1     8.48802  -15.86658  -18.01126
       H     4.58288  -19.61675  -11.18439
       O     5.07887  -19.02624  -10.64376
      H1     5.74682  -18.86268  -11.26860
       H    12.63922  -16.54859  -14.36440
       O    12.59406  -17.46643  -14.19949
      H1    13.52242  -17.75292  -14.24912
       H     5.95619  -18.84625  -18.24500
       O     6.03294  -18.33888  -17.41581
      H1     7.01892  -18.29414  -17.37990
       H     0.35750  -13.24910  -12.20254
       O    -0.06504  -14.02945  -11.76422
      H1    -0.30943  -13.58535  -10.91230
       H    10.43365  -12.20196  -12.26315
       O    11.33247  -11.93603  -12.11707
      H1    11.76615  -12.51929  -12.72579
       H     5.37074  -13.05176   -4.74449
       O     6.03458  -12.37370   -4.49422
      H1     6.52515  -12.05144   -5.30406
       H     3.74892   -9.92075   -9.99565
       O     3.65449   -9.77841   -9.06645
      H1     3.46859  -10.70187   -8.83471
       H     5.23458  -16.48343   -4.88947
       O     5.29438  -15.49368   -4.95953
      H1     4.28720  -15.30397   -4.92596
       H     5.05191  -13.97954   -8.93209
       O     4.18369  -13.85987   -9.26996
      H1     3.90454  -14.80244   -9.19047
       H    -2.98076  -17.88961   -6.73152
       O    -2.78722  -17.33384   -7.48725
      H1    -2.03943  -17.75591   -7.95867
       H     9.45198  -13.23930   -9.91690
       O     8.75217  -13.31614  -10.55756
      H1     8.97022  -14.24039  -10.81976
       H     4.18210  -19.24657   -2.94471
       O     4.11502  -19.55145   -3.89677
      H1     3.68846  -18.84085   -4.40308
       H    12.69247  -17.86590  -12.22313
       O    13.06460  -17.73394  -11.33053
      H1    13.08673  -18.65774  -10.92486
       H     6.31668  -15.26334  -17.14285
       O     5.49302  -15.51622  -17.64190
      H1     5.74176  -16.44348  -17.88137
       H     4.00582  -12.10128  -14.01043
       O     4.55147  -11.32692  -14.28649
      H1     3.84425  -10.71626  -14.42460
       H     7.31871  -12.40761   -9.97065
       O     6.43292  -12.01318  -10.11790
      H1     6.40973  -11.21819   -9.56188
       H     4.63313  -10.93595  -12.67191
       O     4.66836  -10.65224  -11.75097
      H1     5.29539  -11.31097  -11.34282

