180
frame 11 | Written by MDAnalysis XYZWriter (release 2.4.3)
       H    11.14376   10.38899  -17.26137
       O    11.41839   11.29933  -17.55314
      H1    12.18223   11.29314  -17.03393
       H     9.06439   10.76878  -10.50777
       O     9.58247   11.57652  -10.31666
      H1     8.88628   12.21055  -10.34658
       H     6.18918   12.15373  -12.00214
       O     5.70965   12.96361  -11.77396
      H1     5.63593   13.41943  -12.65213
       H     8.36213   12.52390  -18.93737
       O     7.98239   11.77730  -19.33472
      H1     7.27472   11.49071  -18.70777
       H     7.41636   11.07443  -16.33595
       O     7.90766   10.83509  -15.55173
      H1     8.58098   11.48296  -15.35006
       H    15.52010   13.86606  -14.16115
       O    14.78533   13.73600  -13.57644
      H1    14.22874   13.24359  -14.17472
       H     8.84229   18.08111  -15.70651
       O     9.27429   18.30394  -16.57142
      H1     9.15675   19.26395  -16.40249
       H    11.76014   16.51865  -19.33205
       O    11.41633   16.09048  -18.45828
      H1    11.48495   16.76109  -17.77608
       H    16.07036   18.28369   -7.40432
       O    15.64360   18.35631   -8.34778
      H1    16.43197   17.87580   -8.63183
       H    18.51941   15.97548  -16.79320
       O    18.78772   16.39581  -15.95485
      H1    17.95019   16.21653  -15.45219
       H    18.81175   11.70373  -16.46600
       O    19.08501   12.51770  -16.06649
      H1    19.89645   12.72650  -16.50391
       H     7.58290   18.32455  -17.30719
       O     6.68664   17.96121  -17.48349
      H1     6.79114   17.17320  -17.90825
       H    15.58025   17.19092  -15.69133
       O    16.02640   17.44683  -14.87351
      H1    16.19449   18.40165  -14.88970
       H     3.41760   19.77890  -15.45398
       O     4.12104   19.16151  -15.18228
      H1     4.91557   19.79679  -15.14441
       H    12.43822    8.88794  -13.75444
       O    11.98093    8.34616  -14.43005
      H1    12.73463    7.72399  -14.53526
       H    18.29863   10.24948   -9.55563
       O    18.86910   10.87261  -10.01550
      H1    18.33491   11.67730   -9.89714
       H    18.43075   14.62636  -18.91135
       O    17.86598   15.14148  -18.38470
      H1    17.53187   14.56767  -17.71483
       H    12.90416   14.67747  -18.32194
       O    13.65649   14.54490  -17.70766
      H1    14.10810   13.77288  -18.11984
       H     9.61945   18.85548  -11.66643
       O    10.10281   19.69681  -11.66122
      H1    10.56004   19.53445  -12.49050
       H    12.11276    8.44149  -19.45409
       O    12.19415    7.53000  -19.11486
      H1    13.11958    7.41638  -19.02549
       H    17.92326    9.47586  -16.92121
       O    17.73243    9.87354  -16.04448
      H1    18.06981    9.20032  -15.43621
       H    10.62444   13.28092  -15.33253
       O    10.21320   12.42617  -15.42238
      H1    10.57216   12.13105  -16.28018
       H    11.35250   19.95725  -10.69099
       O    12.11287   19.99143  -10.08029
      H1    12.31056   19.05061  -10.01097
       H    12.70872   12.47116   -8.68972
       O    12.25137   12.88236   -7.94378
      H1    11.62422   13.45854   -8.37435
       H    17.17412   13.03584  -16.16559
       O    16.59381   13.79960  -16.15112
      H1    15.81918   13.46926  -16.62819
       H    10.31241   16.58598   -8.76401
       O    10.67479   15.65325   -8.79853
      H1    10.46085   15.43550   -7.88582
       H    16.50077   10.66092  -14.30774
       O    15.62958   11.02018  -13.98697
      H1    15.91959   11.67370  -13.24286
       H    19.12669    8.82554  -18.72035
       O    18.46540    8.31394  -18.25132
      H1    19.08579    7.59822  -18.02882
       H    14.44438   11.82266  -18.57438
       O    15.19419   12.26657  -18.14110
      H1    15.81399   12.29988  -18.85867
       H    12.57274   14.11254  -15.13334
       O    11.83224   14.72628  -14.90935
      H1    12.17179   15.63785  -15.18447
       H    15.36542   15.29020  -12.96808
       O    15.93385   16.03803  -12.58260
      H1    16.02369   16.55155  -13.37107
       H    16.74953   13.02385  -11.37083
       O    16.03499   12.46561  -11.64786
      H1    15.46829   13.07437  -12.19834
       H    13.69152    9.02065  -11.07455
       O    14.47604    9.20661  -10.52657
      H1    14.22073    8.94098   -9.60856
       H    10.64066    8.90401  -15.71451
       O     9.99342    9.12983  -16.41742
      H1     9.33988    9.66239  -15.96583
       H    18.58870   16.65572  -10.17882
       O    17.64980   16.74329   -9.94311
      H1    17.24469   16.49244  -10.75285
       H    15.53503    8.71516  -14.81070
       O    14.82499    8.17160  -15.23298
      H1    14.70766    8.51569  -16.11300
       H    14.50065    9.64286  -18.43667
       O    14.87172    8.84056  -17.93701
      H1    15.26449    8.30403  -18.65343
       H     5.76666   13.59710  -17.48373
       O     5.95990   13.23300  -16.60280
      H1     6.69586   13.80282  -16.34059
       H    10.83363   11.98225  -12.04180
       O    11.59134   12.19460  -12.63204
      H1    11.38002   13.16542  -12.59616
       H     8.10720   16.13568  -10.54053
       O     7.92565   15.68920   -9.68067
      H1     8.75268   15.28290   -9.48324
       H    18.57494   18.22192  -15.91589
       O    18.74480   19.14707  -15.62200
      H1    17.96664   19.62634  -15.89596
       H    12.55497   15.63999  -11.90580
       O    11.73999   15.13699  -12.20590
      H1    11.95776   15.00874  -13.15973
       H     9.15501   16.80177  -12.90623
       O     9.31664   16.93422  -11.95854
      H1    10.05900   16.35011  -11.72812
       H     3.51852   18.34196  -16.36967
       O     3.05446   17.97232  -17.14549
      H1     2.95970   18.73948  -17.78279
       H     8.54194   16.14754  -15.06802
       O     8.45455   16.85235  -14.34161
      H1     7.51231   16.93117  -14.29291
       H    13.89576   10.18731  -13.35772
       O    13.16602   10.07650  -12.68883
      H1    12.71827   10.98992  -12.60260
       H     8.53166   17.05141   -8.62877
       O     8.94431   17.80053   -8.21667
      H1     8.81194   18.51474   -8.86876
       H    12.33573   16.60807   -7.88104
       O    13.05012   16.94197   -7.38681
      H1    13.74153   16.99669   -8.03643
       H    14.73433   12.05577  -10.33673
       O    14.20918   11.64531   -9.61493
      H1    14.38852   10.71438   -9.93704
       H     5.27219   15.01984  -13.97504
       O     4.76784   14.19678  -13.86036
      H1     3.84104   14.54339  -13.58668
       H    14.33419   17.85563  -17.81552
       O    14.79991   17.13191  -17.41435
      H1    14.26200   16.35399  -17.48728
       H     8.51661   14.94300  -17.09291
       O     8.27459   14.67227  -16.16848
      H1     8.97477   14.03349  -15.94054
       H    17.94757   14.63686   -9.83080
       O    18.07170   13.81015  -10.30799
      H1    18.95046   13.88560  -10.77161
       H     5.24935   17.61641  -13.24895
       O     5.55759   17.09750  -14.02402
      H1     5.05766   17.58859  -14.70826
       H    17.81257   19.09196   -6.36951
       O    17.77421   18.16113   -6.64388
      H1    18.30186   18.23013   -7.44405
       H    10.60535   14.26076  -18.61737
       O     9.98690   13.52361  -18.64837
      H1    10.63792   12.81684  -18.80056
       H    11.13080   17.89062  -16.04239
       O    11.97480   17.39765  -16.08563
      H1    12.67318   18.07380  -16.15249
       H     5.35314   10.42844  -13.65796
       O     6.25734   10.69129  -13.36346
      H1     6.77646   10.74569  -14.18862
       H    14.77457   17.42701  -11.28600
       O    14.08089   17.70885  -10.65408
      H1    14.50560   17.88792   -9.76869
       H    13.92601   11.70494  -15.00052
       O    13.11030   12.18843  -15.12346
      H1    12.56585   11.87683  -14.37869

