180
frame 2 | Written by MDAnalysis XYZWriter (release 2.4.3)
       H   -14.94669   14.52648    5.88192
       O   -14.05242   14.76600    6.07791
      H1   -13.74406   14.79040    5.12565
       H   -19.56346   13.08122    2.32317
       O   -19.08995   12.35116    2.77029
      H1   -18.30346   12.35047    2.23835
       H   -16.26198   15.70608    2.92543
       O   -16.29250   14.84068    2.60601
      H1   -17.12243   14.62978    2.26137
       H   -15.25616    8.41415   10.71279
       O   -15.94225    7.89062   11.14863
      H1   -16.18966    7.29268   10.45318
       H   -15.07517   16.74254    8.68744
       O   -15.35708   17.58186    9.06028
      H1   -15.99282   17.91964    8.36242
       H   -14.47496   16.61047   13.19851
       O   -14.05974   17.41507   12.85531
      H1   -13.35984   17.60097   13.45442
       H   -11.69379   10.47764    1.42173
       O   -12.11383   11.27663    1.73311
      H1   -12.29371   11.79073    0.96158
       H   -15.14266   10.14116    6.86274
       O   -15.95708    9.60846    7.00032
      H1   -16.00474    9.52978    7.96495
       H    -9.14358   12.51053    8.96332
       O    -8.70988   11.73607    8.62206
      H1    -9.42500   11.04340    8.70812
       H   -18.73897    9.68397    8.28414
       O   -18.06269   10.32280    8.41374
      H1   -17.52258   10.09811    7.66317
       H   -10.91289   16.83436    9.39442
       O    -9.97989   16.62380    9.58757
      H1   -10.06343   15.66473    9.37597
       H   -16.13955   14.08788    4.41702
       O   -16.34961   13.71017    5.34263
      H1   -17.30341   13.68671    5.34154
       H   -10.73456   13.17299    9.71153
       O   -10.36929   13.76805    8.99049
      H1   -10.84467   13.49623    8.17695
       H   -12.98175   18.60357    3.18201
       O   -12.59545   18.11727    2.43212
      H1   -11.74067   18.66018    2.36573
       H   -11.54012    9.62892    8.24105
       O   -10.60059    9.59947    8.50715
      H1   -10.36740    8.95472    7.80015
       H   -17.55098   17.12943   11.42501
       O   -17.21092   16.35006   10.98665
      H1   -16.39661   16.61136   10.63179
       H   -16.03285    6.98627    5.20861
       O   -15.45275    6.93897    5.98793
      H1   -15.48404    7.85059    6.33360
       H   -18.75721   10.13148    3.41398
       O   -18.92886    9.19854    3.43390
      H1   -19.32773    9.04433    2.56131
       H   -18.46009   10.04477   10.42460
       O   -18.47887    9.33534   11.10814
      H1   -17.62162    8.97056   10.85289
       H   -11.67307   14.77100   12.22398
       O   -10.80584   15.07905   12.51786
      H1   -10.70921   15.79716   11.79891
       H    -9.22585   16.68213    7.93516
       O    -8.65130   16.21821    7.28970
      H1    -7.99306   15.78681    7.87234
       H    -7.87518    9.03034    4.17615
       O    -8.84090    9.13502    4.08756
      H1    -8.93111   10.10062    3.95274
       H   -13.85715   18.10629    1.12880
       O   -14.42991   18.23908    0.34166
      H1   -14.34571   19.19366    0.29359
       H   -17.08898   17.90893    5.54658
       O   -16.85207   18.02623    6.51493
      H1   -17.71295   18.48353    6.74984
       H   -11.00585   11.88894   11.76523
       O   -11.57740   12.15815   10.98398
      H1   -12.08425   11.37778   10.84912
       H   -19.58953   13.09394   -0.42861
       O   -18.96414   13.59034    0.18316
      H1   -18.25268   13.07276   -0.11184
       H   -19.13291   15.94773    8.16175
       O   -18.94744   16.77952    8.61075
      H1   -18.24235   16.53223    9.25442
       H    -9.43707   12.33263    3.42490
       O   -10.14571   11.76034    3.74683
      H1   -10.78217   11.78141    2.98797
       H   -15.56641    9.42144   -0.74406
       O   -14.97671    9.33190    0.06337
      H1   -15.42266    9.67356    0.81604
       H    -7.98565   17.72750    6.62880
       O    -7.31070   18.29619    6.19252
      H1    -7.60760   19.08939    6.62495
       H   -15.57891   12.68398   -0.90045
       O   -16.10215   12.89769   -0.10823
      H1   -15.62557   13.73654    0.06963
       H   -12.46122   14.91735    2.94265
       O   -12.76741   15.51022    3.69852
      H1   -12.80910   16.34688    3.20070
       H   -13.11637   15.55141   10.84288
       O   -12.99724   16.39664   10.37665
      H1   -13.53811   16.95390   10.92280
       H   -12.94385   11.56347    7.03106
       O   -13.31385   10.67392    7.04156
      H1   -12.82446   10.28221    6.31022
       H   -14.89469   17.62968    5.95604
       O   -14.01475   17.72127    5.65173
      H1   -13.94115   16.76836    5.37157
       H   -11.76088    8.45290    5.06661
       O   -12.03047    9.39484    5.11424
      H1   -11.30138    9.81916    4.65463
       H   -16.00980   11.76705    1.54628
       O   -16.27344   10.92599    1.92801
      H1   -16.05797   11.10012    2.85275
       H   -14.84931   16.56301   -0.19644
       O   -14.95531   15.59495   -0.34261
      H1   -14.92980   15.52755   -1.34444
       H   -17.99119    9.26425    0.11047
       O   -18.32159   10.17213    0.19700
      H1   -17.88724   10.45265    1.05514
       H    -8.84522   12.22915    7.08070
       O    -8.58741   12.49629    6.18606
      H1    -9.36887   12.71664    5.73756
       H    -9.83619   15.63792    5.52592
       O   -10.04113   15.73578    4.57743
      H1   -11.02137   15.53693    4.48271
       H   -11.12966   14.04304   -1.04877
       O   -10.94359   14.39120   -0.17903
      H1   -11.23274   15.30887   -0.29152
       H   -17.92152   14.96597   11.08347
       O   -18.24662   14.07253   11.18270
      H1   -18.60124   13.78215   10.36478
       H   -16.76726   13.39251   11.16401
       O   -16.03235   12.68806   11.34164
      H1   -15.26393   13.28679   11.26583
       H   -14.08774   18.89861    9.57479
       O   -13.88922   19.86170    9.69715
      H1   -12.92878   19.72497   10.00759
       H   -14.04295   12.75802    2.84394
       O   -13.98265   12.08388    3.48929
      H1   -13.30407   11.54141    3.11911
       H   -17.99797   17.24952    4.42860
       O   -17.16701   17.48049    3.93925
      H1   -17.39956   18.33382    3.56299
       H   -18.54179   12.12781    5.26605
       O   -19.15467   12.81129    5.58331
      H1   -19.47451   13.04304    4.71433
       H    -7.86362   18.18036    4.57783
       O    -8.55088   18.13142    3.83539
      H1    -8.91849   17.23770    3.93990
       H   -17.84651   17.47762    1.03453
       O   -17.22050   18.19393    1.11611
      H1   -16.43234   17.68342    1.37092
       H   -13.67037   14.61209    0.61917
       O   -13.14930   14.07753    1.27409
      H1   -12.33531   14.08609    0.75856
       H   -14.00764   10.74516   11.46448
       O   -14.17240   10.85089   10.47559
      H1   -15.03277   11.36834   10.51623
       H   -19.35755   12.87634    7.89600
       O   -19.05702   13.03571    8.80956
      H1   -18.57349   12.20021    8.96686
       H   -12.60330   18.35251    6.73430
       O   -12.02096   18.97292    7.20148
      H1   -12.66387   19.65071    7.38776
       H   -13.45287   10.53329   -0.17543
       O   -13.12802   11.20063   -0.87373
      H1   -12.17000   11.11705   -0.71280
       H   -13.05810   17.08691   -0.60869
       O   -12.17263   16.77771   -0.76206
      H1   -11.74239   17.57626   -0.46037
       H   -12.57718   13.80815    6.82561
       O   -11.90994   13.09753    6.75055
      H1   -11.70394   13.09205    5.84537
       H   -14.03498    8.93200    8.99644
       O   -14.54308    8.13495    8.93601
      H1   -13.87907    7.48008    9.25448
       H   -12.99338   13.16088   11.71678
       O   -13.59893   13.89413   11.85214
      H1   -13.66021   13.83417   12.80605
       H   -16.44665   11.74558    5.04440
       O   -17.23820   11.11113    4.87544
      H1   -17.17293   10.36382    5.51703

