180
frame 10 | Written by MDAnalysis XYZWriter (release 2.4.3)
       H     7.42270   10.46547   12.56894
       O     7.22807    9.49202   12.60362
      H1     8.09221    9.02281   12.84807
       H     9.86089   13.70110   11.34540
       O    10.10332   13.63166   10.39427
      H1     9.15659   13.54525   10.00642
       H    10.37404   10.06063   10.66934
       O     9.76181    9.60069   11.30614
      H1     8.97926    9.63479   10.69849
       H     9.60930    9.83255    5.28965
       O    10.02996    9.08031    5.63542
      H1     9.37669    8.32205    5.66024
       H     8.61968   10.49830   16.09461
       O     8.26321   11.42015   16.15932
      H1     7.84681   11.21279   17.03262
       H     4.13710   11.38416   11.54718
       O     4.83786   11.18878   10.89721
      H1     4.52599   10.25996   10.70007
       H    11.16749    6.48854   13.85155
       O    10.42963    6.99766   14.29344
      H1    10.69815    7.94165   14.11218
       H    10.30972   18.39731   15.32148
       O    10.09682   17.45349   15.51762
      H1    10.93701   17.19747   15.90244
       H    11.68511   18.71379   13.31705
       O    11.88826   18.53634   12.39607
      H1    12.15044   17.64887   12.24949
       H    14.71186   10.48739   13.26422
       O    15.45346   10.11033   13.75229
      H1    16.15265   10.01035   13.08229
       H    11.80885    8.36071   17.10926
       O    12.09958    8.79445   16.33219
      H1    11.32716    8.93598   15.76694
       H     5.40307   17.17670   11.38359
       O     5.32510   17.97235   11.95827
      H1     5.99686   18.51636   11.55513
       H    15.51921   13.34091   11.87063
       O    14.58062   13.38646   11.68686
      H1    14.61875   13.37847   10.67478
       H    10.71523    9.66488   12.92520
       O    11.09385    9.53597   13.78688
      H1    11.76964   10.23238   13.91203
       H    13.07638   11.44995   13.54974
       O    13.26662   10.97853   12.66780
      H1    13.74180   11.61145   12.10696
       H    12.60596   16.38549   10.39340
       O    11.65592   16.12473   10.42196
      H1    11.64491   15.19723   10.47653
       H    10.22312   16.66320   11.43810
       O     9.29969   16.83299   11.69224
      H1     9.37736   17.32323   12.54440
       H    11.61812   14.58860   15.38922
       O    11.29668   14.05047   14.66296
      H1    10.50098   14.56253   14.39711
       H     8.85152    7.29227   11.26916
       O     8.46750    6.89442   12.10522
      H1     9.07555    7.23685   12.78626
       H    10.49270    8.05106   10.34346
       O    10.37634    7.23846    9.85130
      H1    10.60035    6.55225   10.45182
       H    12.48927    7.61320   12.50723
       O    13.26807    8.04946   12.15046
      H1    12.96521    8.97586   12.25552
       H     8.37049   13.71697   12.48944
       O     8.99565   14.34826   12.77867
      H1     8.69864   15.12038   12.30986
       H     5.03282    9.34665    7.59128
       O     4.38326    9.94347    7.34556
      H1     4.65568   10.07812    6.42902
       H    14.51907   10.79656    5.00765
       O    14.98202   10.76424    5.93803
      H1    15.61662   10.06877    5.74126
       H     8.89261   13.80941    7.03817
       O     9.10263   14.75974    7.20316
      H1     8.39132   15.28599    6.86316
       H    14.60981   15.68677   11.14221
       O    14.17134   16.48917   10.78535
      H1    14.74899   17.24912   10.98149
       H    11.18451   12.29202   16.29915
       O    10.55013   12.46656   17.05866
      H1     9.68030   12.14426   16.63805
       H     5.96662   16.11684    6.67795
       O     6.86027   16.16873    6.27978
      H1     6.78021   15.56495    5.58385
       H     2.84447   14.62806   12.84674
       O     3.11500   14.18341   11.96366
      H1     3.52022   14.96554   11.46490
       H    13.12687   18.72050    8.55835
       O    13.76567   19.33911    8.99575
      H1    14.55265   18.85804    8.86006
       H     9.88284   11.58198    7.79075
       O     9.17592   12.09662    7.26377
      H1     8.40893   11.53900    7.53491
       H     9.59831   18.83109    9.36084
       O     9.14727   17.98871    9.28606
      H1     9.17813   17.65412   10.23677
       H     6.26645   17.25478    8.95579
       O     6.47514   18.20645    9.02428
      H1     7.41619   18.13309    8.77699
       H    10.93952   17.74129    4.81750
       O    11.12106   17.38726    3.92542
      H1    11.17156   16.48347    4.19947
       H     9.10477   15.11916   16.73856
       O     9.66211   15.17098   17.53845
      H1    10.22612   14.36140   17.49254
       H    17.67814   14.17181   11.69777
       O    17.21485   13.31038   11.61088
      H1    17.22799   13.18099   10.65481
       H     4.61373   10.31535   13.93970
       O     4.84293    9.39840   14.06938
      H1     5.61301    9.24492   13.48205
       H     8.41038   13.17325    4.24551
       O     7.93007   13.94885    4.13783
      H1     7.23932   13.71448    3.53636
       H     4.84101   16.12212   15.43132
       O     5.21802   15.22892   15.41317
      H1     6.17479   15.25060   15.59751
       H    12.97331   17.64108   16.31147
       O    12.74028   16.78369   15.96821
      H1    13.54348   16.51658   15.44220
       H     5.38788   11.33329    7.64234
       O     6.10562   11.99377    7.88245
      H1     5.68599   12.81871    7.45085
       H     4.27019   14.93610    7.15266
       O     4.79270   14.30936    7.75056
      H1     4.06001   13.64345    7.92373
       H     4.35936   12.32623   13.91334
       O     5.29881   12.48536   14.17249
      H1     5.19797   13.38764   14.41211
       H    11.55167   17.50531    8.67140
       O    11.99165   17.51053    7.76670
      H1    11.17430   17.69429    7.30074
       H    12.22146   12.59777   14.68363
       O    12.37949   11.70088   15.09585
      H1    13.16662   11.89925   15.68551
       H     8.82878   17.97551    6.67242
       O     9.68481   18.27245    6.31986
      H1     9.67345   19.21093    6.48084
       H    13.65129   15.18718    6.47586
       O    13.06620   14.86193    7.15419
      H1    12.67812   15.61765    7.55023
       H    14.25393   11.94551    8.67390
       O    13.75607   11.10728    8.60279
      H1    14.19904   10.79853    7.71693
       H    10.27489   14.74032    6.08867
       O    10.92907   14.68971    5.34013
      H1    11.69548   14.36454    5.79675
       H     6.71442    8.59882    8.68764
       O     6.49310    8.03298    7.93391
      H1     6.64632    7.19868    8.39135
       H     7.27736   13.22379    8.74391
       O     7.60442   13.77775    9.47297
      H1     8.17038   14.35396    8.96248
       H     5.14596   15.06666    9.39632
       O     5.26327   15.64941   10.18616
      H1     6.11578   15.28087   10.43074
       H     6.79747   10.56284    9.43533
       O     7.30240    9.84384    9.91577
      H1     6.73074    9.83681   10.69786
       H    15.86373   13.50472    8.48756
       O    15.13963   13.45482    9.10034
      H1    14.60396   14.06188    8.56184
       H    14.15973   13.18910   16.74899
       O    14.64688   13.07012   15.88613
      H1    14.56357   13.97775   15.53211
       H    13.71977   15.19061   13.66086
       O    14.20120   15.24613   14.45704
      H1    15.06127   15.50099   14.06857
       H     6.76207   12.22968   11.66229
       O     7.32978   12.21146   12.49104
      H1     6.59178   12.31260   13.18253
       H    10.36249   11.92922    4.06239
       O     9.55629   11.57618    4.39915
      H1     9.55515   11.96011    5.25387
       H    10.63060   11.96970    9.52527
       O    10.91052   11.12197    9.16896
      H1    11.83141   11.35005    8.89447
       H     8.15055   13.81242   14.72838
       O     7.86244   14.10857   15.61965
      H1     7.92888   13.32426   16.12034

