180
frame 7 | Written by MDAnalysis XYZWriter (release 2.4.3)
       H     3.33379  -11.92246   17.47699
       O     3.48286  -10.98492   17.56068
      H1     3.50807  -10.89265   18.47822
       H    11.88976  -16.28235   15.40236
       O    11.28917  -16.84691   15.90957
      H1    10.83237  -16.23357   16.47467
       H    -0.43620  -13.44395   18.28688
       O     0.09717  -12.64446   18.39144
      H1     0.29375  -12.43395   17.44697
       H     9.33208  -15.18350   15.12420
       O     8.90319  -15.53567   15.92882
      H1     9.04873  -14.86925   16.60388
       H     4.67449  -11.55280   12.36137
       O     3.71903  -11.38741   12.58025
      H1     3.19896  -11.81145   11.87302
       H     3.22682  -16.68939   16.32000
       O     3.33925  -17.31762   15.55557
      H1     2.57016  -17.09014   14.94956
       H     1.77752   -8.45403   13.96960
       O     1.29074   -7.98448   13.30115
      H1     0.98125   -8.76169   12.74208
       H     7.24843  -17.92004   12.44823
       O     7.15348  -17.70306   13.40166
      H1     6.35156  -18.19080   13.65019
       H    12.00082  -13.56257   18.06241
       O    11.43976  -13.37920   18.82656
      H1    12.09230  -13.59672   19.53886
       H     3.17804  -12.55402    8.87637
       O     3.01392  -12.12566    9.73561
      H1     3.84665  -11.60672    9.80220
       H     2.86087  -16.46730   12.97968
       O     2.03043  -16.92689   13.21783
      H1     1.97516  -17.60735   12.52272
       H     8.36551  -10.49190    8.44893
       O     7.45187  -10.75978    8.14833
      H1     7.69291  -11.31510    7.37060
       H     5.44197   -4.60862   16.93816
       O     4.83670   -5.41221   16.85914
      H1     4.35100   -5.07322   16.10324
       H     0.03372   -7.01523   17.85425
       O     0.97772   -7.05482   17.76580
      H1     0.97473   -7.48622   16.90492
       H     6.11950  -12.22365   13.50696
       O     6.49513  -11.76532   12.69155
      H1     6.32236  -12.51026   12.09004
       H     6.44547   -7.64630   10.95636
       O     6.15297   -8.38177   11.52950
      H1     6.52835   -8.12286   12.38843
       H     6.35840   -6.49255   16.41275
       O     6.93771   -7.24572   16.21560
      H1     6.33597   -8.01715   16.43290
       H     8.69679   -6.53668   16.86371
       O     9.64924   -6.35682   16.76242
      H1     9.90008   -6.07184   17.70227
       H    11.11903  -16.02456   11.07821
       O    11.62731  -16.19603   11.83120
      H1    12.33303  -15.57862   11.79087
       H    11.98356  -14.43042   14.57171
       O    12.90046  -14.71790   14.83335
      H1    13.02462  -14.19478   15.63955
       H    -0.00191  -10.84051    8.43533
       O     0.68642  -10.23923    8.83996
      H1     1.38880  -10.90041    9.02589
       H     8.14849  -10.20404   11.16222
       O     8.64804   -9.51881   10.64790
      H1     7.99815   -8.79972   10.47695
       H     9.64700  -13.92483   13.72645
       O    10.32826  -14.59305   13.85964
      H1    10.39521  -15.01755   12.99663
       H     4.70675  -18.74454   14.99749
       O     5.46637  -19.37732   15.00974
      H1     6.05369  -18.93634   15.57862
       H     9.08044  -11.10635   16.97957
       O     8.89352  -10.85205   16.08330
      H1     7.99653  -10.56551   16.21416
       H     0.34122  -17.18204   17.31268
       O     0.47917  -16.24809   17.54295
      H1    -0.24967  -15.96785   18.08588
       H     3.53619  -13.46161   19.34219
       O     3.01265  -13.75901   18.58503
      H1     2.10579  -13.46874   18.90731
       H     5.94965  -18.39216   17.58612
       O     6.54514  -17.84380   17.07847
      H1     6.08706  -16.97653   17.06306
       H     3.10720  -12.49741   13.94448
       O     3.18979  -12.81804   14.88153
      H1     2.67263  -13.65088   14.79360
       H     3.76931   -6.16106   13.33854
       O     3.44923   -6.50669   12.52089
      H1     2.59295   -6.99186   12.64371
       H     2.33682   -9.74784   16.71940
       O     2.23968   -9.18326   15.96965
      H1     2.99176   -9.59513   15.47401
       H     5.55774   -9.84696   15.49414
       O     6.05510  -10.04868   16.31718
      H1     5.35048  -10.13325   16.97920
       H     8.40123  -19.18096   10.56563
       O     7.90271  -18.32391   10.72943
      H1     7.20891  -18.46590   10.05827
       H     4.40029   -8.45873   13.51631
       O     4.41427   -9.25041   14.05682
      H1     4.42219   -9.93293   13.32922
       H     0.97973  -15.15811   15.73625
       O     0.75171  -14.35527   15.17426
      H1     0.68669  -14.72115   14.25610
       H     5.79544  -13.90776    9.91160
       O     5.38511  -13.23000   10.48209
      H1     4.47280  -13.11944   10.22064
       H     8.86795  -14.33433    9.78636
       O     8.70099  -13.74259   10.56274
      H1     8.04542  -14.25324   11.03340
       H     9.79148  -18.06712   15.26367
       O     9.22913  -18.85721   15.01925
      H1     8.41882  -18.36975   14.78095
       H     2.52973  -13.46105   10.71390
       O     2.68848  -14.13799   11.44456
      H1     1.92313  -14.73649   11.27945
       H     8.91289  -11.66325   14.52919
       O     9.12648  -11.91280   13.60148
      H1     8.24692  -11.80404   13.17498
       H    11.02077   -9.74916   12.91455
       O    10.93074   -8.89849   12.42232
      H1    10.08229   -9.01893   11.99427
       H    -1.98812  -12.28636   14.99273
       O    -1.22191  -12.11525   14.42092
      H1    -0.58117  -12.78507   14.55656
       H     6.40829  -12.56688   19.31783
       O     6.92730  -11.75324   19.12761
      H1     7.83019  -11.98867   19.24705
       H    -0.33127  -10.96273   15.50813
       O    -0.07521  -10.51945   16.34063
      H1     0.79690  -10.08565   16.20426
       H    10.12048  -12.82065    9.98559
       O    10.77291  -12.41733    9.41865
      H1    10.27732  -12.08017    8.69605
       H     4.84021  -15.61464   16.84217
       O     4.30034  -16.03752   17.63970
      H1     3.89129  -15.11899   17.88535
       H    10.27067  -10.54317   18.47119
       O     9.72456  -11.32023   18.72250
      H1    10.48602  -11.94193   18.62088
       H     4.64979  -19.19038   10.64505
       O     5.09522  -18.48094   10.09278
      H1     4.84571  -17.58152   10.45646
       H    12.26075  -11.34361   13.60763
       O    11.73989  -10.66374   14.08099
      H1    10.87818  -11.15930   14.02646
       H     8.96981  -16.86860   10.36406
       O     9.67343  -16.30222    9.95205
      H1     9.91371  -16.88349    9.22548
       H     5.19265  -15.55111   12.02124
       O     4.47333  -16.10513   11.79127
      H1     3.75247  -15.45470   11.64204
       H     8.70117  -14.87662   19.25843
       O     8.79729  -14.16880   18.56204
      H1     9.64972  -13.86280   18.80820
       H     4.67868  -12.81258   14.95270
       O     5.72054  -12.75900   15.05325
      H1     5.76368  -12.20327   15.84050
       H     6.52924  -15.81183    8.03779
       O     6.75229  -15.17994    8.74928
      H1     7.55415  -15.58625    9.10351
       H     7.10177  -15.53206   15.95078
       O     6.08504  -15.44610   15.85271
      H1     6.02802  -14.48252   15.87462
       H     9.44068  -18.61131   17.39121
       O     8.98038  -18.21433   18.14233
      H1     8.07476  -18.06354   17.76771
       H    -1.01947  -14.21351   12.88473
       O    -0.14250  -14.19372   12.53347
      H1    -0.07363  -15.02265   12.01410
       H     8.51532   -7.03773   13.62426
       O     7.59378   -7.02850   13.57786
      H1     7.29383   -7.25920   14.47565
       H     6.42077  -14.89993   13.53518
       O     6.98253  -14.98361   12.73985
      H1     7.19445  -15.89277   12.78141
       H     5.36955   -9.60870   10.37512
       O     5.05521  -10.33185    9.79733
      H1     5.90960  -10.65797    9.40418

