180
frame 2 | Written by MDAnalysis XYZWriter (release 2.4.3)
       H   -13.18291    0.35793  -10.81007
       O   -12.89189    1.23665  -10.46113
      H1   -13.12770    1.98520  -11.05661
       H    -8.89208   11.81630  -10.64956
       O    -8.18729   11.24066  -10.30419
      H1    -7.55732   11.17574  -11.05069
       H   -11.50953    8.86940  -10.67308
       O   -11.12457    8.02443  -10.40795
      H1   -10.36258    8.21110   -9.85720
       H   -12.30570    4.38453  -11.28707
       O   -12.75223    3.67020  -11.83690
      H1   -13.61875    4.05255  -12.12180
       H   -10.25672    7.37222  -11.90123
       O    -9.40294    7.21616  -12.44391
      H1    -9.73134    7.04436  -13.35582
       H   -13.15051    4.92702   -8.02586
       O   -13.86434    4.93473   -7.35443
      H1   -14.55558    5.25812   -7.96077
       H   -12.41857   10.50580  -18.45508
       O   -12.85148   10.99565  -19.11616
      H1   -13.65646   10.53317  -19.26229
       H   -14.28266    0.46057   -7.59885
       O   -13.75683    1.23916   -7.77379
      H1   -13.49775    1.18315   -8.70680
       H   -13.05211    8.78470  -14.24159
       O   -13.83244    9.19699  -13.83051
      H1   -14.50799    9.00739  -14.46129
       H   -17.01303    3.06971  -12.98867
       O   -16.45800    2.29669  -12.83016
      H1   -16.56768    2.19230  -11.90573
       H    -9.18423   13.20230  -14.43301
       O    -9.70429   12.57722  -14.97972
      H1   -10.52542   12.37615  -14.43026
       H    -6.60360    5.81030  -15.31336
       O    -7.07691    6.48042  -14.77713
      H1    -7.19273    5.94977  -13.93789
       H   -12.40633   10.31250  -11.90662
       O   -12.55765   10.26252  -10.96101
      H1   -12.52234   11.20219  -10.66804
       H   -16.52432    5.78165  -14.17591
       O   -17.28954    6.30053  -14.60190
      H1   -18.03753    5.80033  -14.16616
       H   -14.32944    5.67885  -13.29855
       O   -15.06263    4.97238  -13.38664
      H1   -14.77390    4.48521  -14.16974
       H   -18.27360    3.35082  -10.52982
       O   -17.62265    2.64477  -10.40713
      H1   -17.70372    2.38215   -9.48114
       H   -15.11649   10.86448   -9.22668
       O   -14.92159   11.60691   -8.65883
      H1   -15.75720   12.16270   -8.77531
       H   -10.92365    7.02335  -15.32759
       O   -11.06089    7.91640  -14.96820
      H1   -11.29865    8.38842  -15.80893
       H    -6.79242    8.20952  -11.74944
       O    -6.08879    8.40163  -11.11086
      H1    -6.43271    7.95497  -10.31500
       H    -8.78972    8.18682   -7.17960
       O    -8.14612    7.91324   -6.47631
      H1    -8.63273    7.33811   -5.89029
       H   -15.71832    7.30610   -8.94726
       O   -16.38158    6.69420   -8.61682
      H1   -17.11514    6.95388   -9.14225
       H   -17.24212    7.04178  -17.39055
       O   -17.31492    6.03687  -17.38331
      H1   -17.21297    5.82536  -16.45317
       H    -6.77480    5.83449   -9.02474
       O    -7.26009    6.63949   -9.30497
      H1    -7.66490    6.86009   -8.46368
       H    -9.38559    8.33504  -15.75535
       O    -8.57360    8.14417  -16.26435
      H1    -8.14654    7.45259  -15.69913
       H    -9.29078    0.73840  -10.84573
       O    -9.80308    1.40337  -11.33098
      H1   -10.65235    1.06330  -11.06253
       H   -11.73509    9.56371   -6.21092
       O   -11.48227    8.91242   -5.54537
      H1   -10.78862    9.45534   -5.16645
       H    -8.05663    9.92289  -16.61258
       O    -8.01290   10.82947  -16.92632
      H1    -8.33093   11.28997  -16.16018
       H   -10.88853    9.00880  -17.82521
       O   -11.36663    9.49775  -17.12569
      H1   -10.83535   10.27298  -16.95289
       H   -15.64292   11.59793  -14.97853
       O   -16.39775   11.19859  -14.49017
      H1   -16.20261   11.34273  -13.55824
       H    -7.42591    4.42472  -12.36061
       O    -7.00697    5.28559  -12.42902
      H1    -7.63770    5.87012  -12.02775
       H   -16.87422    4.08043   -7.03020
       O   -17.79487    4.44924   -7.19247
      H1   -17.57114    4.91572   -8.05811
       H   -16.53432    7.71945   -6.73699
       O   -16.60594    8.21778   -5.89857
      H1   -17.59629    8.07177   -5.77859
       H   -18.51415    6.62894  -11.04177
       O   -18.45969    7.22251  -10.31186
      H1   -19.35722    7.14691   -9.88789
       H   -17.16872    1.13250  -15.11418
       O   -17.73975    0.68295  -14.40818
      H1   -17.44409    1.17188  -13.63364
       H   -12.85997    3.77365  -18.88874
       O   -13.15210    4.60422  -18.58724
      H1   -13.48537    4.35205  -17.71778
       H   -13.84515    3.34488  -16.01024
       O   -14.56334    3.98097  -16.25807
      H1   -15.32968    3.36232  -16.42272
       H   -13.77524    7.44196  -12.96001
       O   -13.16905    6.69112  -12.94016
      H1   -12.38844    7.03603  -13.40417
       H   -12.72434   12.30710  -14.13229
       O   -11.94746   12.40877  -13.56182
      H1   -11.86148   13.37263  -13.64680
       H   -15.96910    8.72837  -18.93052
       O   -15.34308    8.84473  -19.64010
      H1   -15.15825    7.92291  -19.77539
       H   -13.76718   11.18943  -15.60763
       O   -13.75358   12.13006  -15.47744
      H1   -13.06572   12.47603  -16.02287
       H    -8.27311    2.16553  -12.02559
       O    -7.45880    2.62038  -12.34011
      H1    -7.12635    2.00512  -13.03746
       H   -10.45751    2.95995   -8.96000
       O    -9.79137    3.49187   -9.45940
      H1    -9.81133    2.93636  -10.27297
       H   -10.96698    5.02873  -16.14976
       O   -10.94989    5.35730  -15.23510
      H1   -10.71447    4.54283  -14.79105
       H    -9.42792   -0.52140  -13.42655
       O   -10.16616    0.06783  -13.64711
      H1    -9.86608    0.88262  -13.24849
       H   -11.02860    5.03951   -9.47562
       O   -11.95499    5.33732   -9.60332
      H1   -11.76755    6.23662   -9.87904
       H   -17.20152    2.10304  -17.18525
       O   -16.39289    1.94102  -16.62443
      H1   -16.00368    1.19464  -17.12836
       H   -10.83530    2.95887   -6.85264
       O   -11.20476    2.27899   -7.45163
      H1   -12.14938    2.49539   -7.30402
       H   -10.27884    9.83411   -8.18337
       O    -9.57197    9.22609   -8.42147
      H1    -8.98422    9.79102   -8.93009
       H    -7.89760    3.66511  -17.69947
       O    -7.99891    4.46838  -18.21780
      H1    -8.85049    4.82763  -18.02031
       H   -13.67351   12.91660   -9.61273
       O   -13.22499   12.96805  -10.47541
      H1   -12.28506   13.14793  -10.28679
       H   -13.91680    0.47081  -13.57976
       O   -14.41707    1.07379  -14.21493
      H1   -15.15271    1.43286  -13.69393
       H   -11.49932    5.06730  -18.26796
       O   -10.57821    5.42636  -18.16268
      H1   -10.79431    6.36336  -18.33582
       H   -17.82276    9.26877  -10.80636
       O   -17.19022    9.94701  -10.60344
      H1   -17.68020   10.55508  -10.04457
       H   -17.69321    9.21666  -17.94627
       O   -17.04947    8.50579  -17.67829
      H1   -16.81879    8.73519  -16.78657
       H   -16.07326   11.28164  -11.26929
       O   -15.58650   11.72075  -11.95189
      H1   -14.74953   11.92263  -11.49012
       H   -11.32178    2.89783  -14.33643
       O   -10.42824    3.07021  -14.02511
      H1   -10.49338    2.99442  -13.08587
       H   -12.58448   11.36436   -7.53189
       O   -12.15082   10.46449   -7.57510
      H1   -12.84164    9.96648   -8.07860
       H   -16.30588    9.54639  -14.83875
       O   -16.11390    8.71061  -15.28230
      H1   -16.75081    8.05819  -14.94111
       H   -13.19888    1.65837  -15.30370
       O   -12.64834    2.33716  -15.80172
      H1   -12.22962    1.82149  -16.51898
       H   -15.31837    9.11900  -10.22804
       O   -14.48553    9.07051   -9.67680
      H1   -13.93680    9.57522  -10.26417

