180
frame 1 | Written by MDAnalysis XYZWriter (release 2.4.3)
       H    -5.35617   -3.58093  -11.00131
       O    -5.04454   -4.09350  -10.20332
      H1    -4.15544   -3.91909  -10.05128
       H     3.15891   -5.75595   -5.84219
       O     3.41652   -4.87208   -6.23750
      H1     3.61906   -5.16733   -7.11853
       H    -4.05781   -2.11215   -6.39017
       O    -3.54204   -1.72486   -7.09235
      H1    -4.08694   -1.27089   -7.75100
       H    -3.21990   -5.56688   -5.53382
       O    -4.11938   -5.73084   -5.20623
      H1    -4.49568   -6.49743   -5.72399
       H    -4.59966   -2.18106  -15.71522
       O    -3.81750   -2.74246  -15.66023
      H1    -3.60329   -2.86605  -14.71132
       H    -0.14751    1.34422   -8.40566
       O     0.69980    1.23392   -9.00861
      H1     0.47139    1.86247   -9.71307
       H     0.39261  -10.54931  -11.54336
       O     1.26277  -10.16127  -11.80497
      H1     1.70632  -10.81535  -12.30791
       H     1.63537   -6.51643  -12.62825
       O     1.31823   -5.58467  -12.83881
      H1     0.68698   -5.67087  -13.60381
       H    -1.16436   -5.39747   -6.28798
       O    -1.50389   -4.72861   -5.66519
      H1    -0.85351   -4.59936   -4.89679
       H     0.26187   -3.26232  -10.65868
       O    -0.20516   -4.05574  -10.90002
      H1     0.42495   -4.53598  -11.53078
       H    -0.65951   -6.93984  -11.72359
       O    -1.28615   -7.63338  -11.83153
      H1    -2.12837   -7.16370  -11.51807
       H    -1.06620   -3.25611   -6.30109
       O    -1.00271   -2.27201   -6.45089
      H1    -1.97169   -2.06012   -6.67062
       H    -5.97899   -5.53828   -9.15460
       O    -6.09145   -6.34501   -8.72550
      H1    -6.73016   -6.07768   -8.03029
       H     3.60882   -9.52453   -9.21674
       O     3.36849   -8.56911   -9.12364
      H1     2.95408   -8.32371   -9.98059
       H     2.19980   -8.40438  -12.02948
       O     2.43136   -7.58310  -11.63067
      H1     3.37562   -7.42562  -11.65148
       H     5.43514   -5.31155  -10.86342
       O     4.64563   -5.70671  -11.28865
      H1     3.84523   -5.21855  -10.99946
       H    -1.61506   -2.73425  -12.58427
       O    -1.72565   -2.78002  -13.52309
      H1    -1.50213   -3.65427  -13.83001
       H    -4.73077   -7.81974  -11.40912
       O    -5.08743   -8.63784  -10.97825
      H1    -4.92736   -8.46928  -10.08474
       H     2.16009   -3.28975   -6.27679
       O     1.62473   -2.88479   -5.58944
      H1     0.70914   -2.69603   -5.93989
       H    -0.08448    2.05976  -12.00028
       O     0.11360    2.90726  -11.47532
      H1    -0.76240    3.36479  -11.36814
       H     4.70037   -1.36989   -9.94757
       O     5.23776   -0.70274  -10.36003
      H1     4.91239   -0.54046  -11.23713
       H    -1.39905   -4.21724   -9.62324
       O    -2.13577   -4.02890   -9.06393
      H1    -1.80724   -3.47772   -8.35980
       H     1.15372   -1.62316  -15.99036
       O     1.24631   -1.74829  -16.96508
      H1     0.64831   -1.12452  -17.34002
       H     4.29296   -3.36950  -13.52137
       O     5.21928   -3.20242  -13.65407
      H1     5.36205   -2.67340  -14.41928
       H     2.17538   -3.00055  -11.71715
       O     2.58703   -3.23877  -12.58575
      H1     2.13609   -4.06831  -12.79864
       H    -3.42979   -5.56810  -17.01199
       O    -4.27761   -5.12027  -16.88200
      H1    -4.14750   -4.22623  -16.47200
       H     0.08709   -0.31868  -13.31981
       O    -0.44196    0.49456  -13.19338
      H1    -1.34141    0.23365  -12.77504
       H     2.55181    0.27108   -4.54996
       O     1.71278    0.09579   -5.00239
      H1     1.63200   -0.86055   -5.15884
       H     2.89005    0.84390  -11.36267
       O     2.57641    0.04448  -11.81472
      H1     2.42873    0.24904  -12.73792
       H     2.12431   -8.29318   -7.64664
       O     1.53612   -8.37955   -6.88525
      H1     1.63350   -9.30354   -6.53575
       H    -0.74816   -9.19283  -14.79802
       O    -1.21749   -8.41573  -14.42961
      H1    -1.05318   -8.44961  -13.46195
       H    -1.99072  -10.49285  -10.91346
       O    -1.14883  -10.51180  -10.39259
      H1    -1.01562  -11.39966  -10.05295
       H    -4.18356   -8.01339  -14.37051
       O    -4.17083   -8.95194  -14.34691
      H1    -3.23399   -9.21136  -14.30986
       H     3.63452    0.58401  -14.13321
       O     2.82458    0.90062  -14.57314
      H1     2.56530    1.68263  -14.05762
       H    -3.00976    2.13856  -11.90020
       O    -2.55778    3.06748  -11.88101
      H1    -3.23881    3.74124  -11.62717
       H    -3.21054   -0.77013  -12.19016
       O    -2.72960    0.03379  -11.87369
      H1    -2.24291   -0.43744  -11.11865
       H    -1.14555   -9.94452   -8.25689
       O    -1.46728  -10.00309   -7.34049
      H1    -1.10081  -10.80554   -7.02232
       H     2.21994    0.36297   -6.72920
       O     2.73457    0.46560   -7.55236
      H1     2.11851    0.80059   -8.23561
       H     1.46533   -2.30365  -13.61969
       O     0.86976   -1.79264  -14.20238
      H1    -0.01781   -2.12092  -14.05831
       H    -4.07487    1.14703   -9.88514
       O    -4.19020    2.06243   -9.62116
      H1    -5.07211    2.46269   -9.89540
       H    -1.18333   -0.47788   -8.91634
       O    -1.29382   -1.17623   -9.58831
      H1    -1.83366   -1.84697   -9.12570
       H    -1.41393    0.08762  -16.18378
       O    -1.14194    1.01512  -15.95509
      H1    -0.65998    0.95214  -15.13787
       H    -1.48205   -2.05552  -17.88637
       O    -1.96544   -1.36575  -17.44733
      H1    -2.64390   -1.86215  -16.92280
       H    -4.29877   -5.75769  -10.91098
       O    -3.93478   -6.26508  -11.64076
      H1    -4.05618   -5.80448  -12.48949
       H    -1.97992   -7.75764   -5.93894
       O    -2.31420   -7.88572   -5.07523
      H1    -2.89549   -7.10824   -4.85982
       H    -4.42342   -5.77965  -15.26094
       O    -4.44297   -5.93124  -14.30451
      H1    -5.33996   -5.78997  -14.05841
       H     2.89859   -7.16654  -15.50699
       O     2.10704   -7.40705  -15.98608
      H1     1.51884   -6.68107  -15.98025
       H     0.64420   -1.43675   -9.97263
       O     1.52045   -1.82673  -10.24358
      H1     1.73726   -1.07686  -10.91617
       H    -5.72577    0.08196   -8.92558
       O    -5.30568   -0.56587   -9.49680
      H1    -6.05358   -1.16854   -9.64124
       H    -6.58166   -2.19365  -13.00905
       O    -5.85312   -2.86132  -12.77382
      H1    -6.01029   -3.66389  -13.26884
       H     0.00682   -7.65034   -7.21654
       O    -0.85591   -7.09846   -7.33097
      H1    -1.47522   -7.44583   -7.97521
       H     0.27273   -3.12381  -17.01407
       O    -0.14593   -3.99721  -17.10038
      H1     0.53194   -4.56638  -17.52023
       H     6.62012   -1.66408  -11.14249
       O     6.92920   -2.13222  -11.87974
      H1     6.20599   -2.41149  -12.43956
       H    -2.15396   -8.49413   -9.87899
       O    -2.73944   -8.18579   -9.14329
      H1    -2.68760   -8.80002   -8.42342
       H    -1.16309   -6.21943  -14.52201
       O    -0.76672   -5.32765  -14.46094
      H1    -0.59776   -5.12983  -15.41749
       H     4.42968   -6.12131  -13.26766
       O     4.18315   -6.79177  -13.94193
      H1     4.95152   -7.30537  -14.15125
       H     3.69792   -1.76501   -7.54648
       O     3.31807   -2.36636   -8.21897
      H1     2.58875   -1.90178   -8.63476
       H    -1.53568    1.38445   -6.77342
       O    -1.59848    1.12023   -7.70008
      H1    -1.94497    1.94900   -8.05715
       H     3.19500   -4.00994   -8.79914
       O     2.72013   -4.87442   -8.98110
      H1     1.79176   -4.62229   -8.98809
       H    -5.43887   -4.50035   -5.96681
       O    -5.74531   -3.82741   -6.60271
      H1    -5.12290   -3.94895   -7.32092

