180
frame 0 | Written by MDAnalysis XYZWriter (release 2.4.3)
       H    -4.87830  -10.91994   18.90464
       O    -5.87702  -11.03992   18.64001
      H1    -6.03868  -11.97973   18.94583
       H    -1.25017   -8.49801   15.63980
       O    -1.42498   -7.66514   16.10289
      H1    -1.01981   -7.01430   15.59561
       H    -4.37704   -3.91033   10.58577
       O    -5.05839   -3.96878    9.91417
      H1    -4.74770   -4.73498    9.44948
       H   -10.43002   -3.46598   16.29783
       O   -11.02444   -2.88326   16.79479
      H1   -10.81358   -2.00619   16.45750
       H    -7.79624  -12.40538   14.71847
       O    -7.26649  -11.62553   14.99078
      H1    -7.05777  -11.33984   14.08436
       H    -8.20057   -8.36665    9.48721
       O    -7.30767   -8.57434    9.68398
      H1    -6.78096   -7.80590    9.61342
       H    -7.20183   -4.75649   16.24422
       O    -7.09620   -3.83667   15.79216
      H1    -7.78241   -3.87824   15.11705
       H    -6.55515  -13.19095   11.34550
       O    -6.87714  -13.84065   12.01299
      H1    -6.66656  -14.70017   11.68871
       H    -5.64803  -13.66187   13.75731
       O    -4.99830  -14.08981   14.34943
      H1    -5.00525  -13.48042   15.16841
       H    -2.40554   -4.85648   12.30127
       O    -2.61312   -4.43958   11.45788
      H1    -1.98087   -4.80049   10.78420
       H    -6.23819   -4.61145   12.78770
       O    -6.35663   -3.69584   12.46230
      H1    -6.11993   -3.76789   11.48840
       H   -10.69915   -6.34197   15.35252
       O   -10.65128   -5.53619   15.92994
      H1   -11.48072   -5.67821   16.44828
       H    -7.90620   -8.27256   12.92091
       O    -7.99210   -7.66255   13.66165
      H1    -8.36766   -8.23041   14.30417
       H    -7.50942   -9.57969   11.25079
       O    -7.31559   -9.88623   12.16542
      H1    -6.34527   -9.74682   12.18540
       H    -3.14354   -8.74479   15.56242
       O    -4.04667   -8.98594   15.35342
      H1    -4.47619   -8.13307   15.23215
       H    -5.58016  -11.77288   15.86921
       O    -4.76779  -12.18692   16.17173
      H1    -4.91729  -11.99885   17.12628
       H    -7.01152   -5.43047   18.82029
       O    -6.04060   -5.50565   18.74375
      H1    -5.76309   -5.15932   19.64850
       H    -4.40563   -7.68083   19.28943
       O    -5.26723   -7.97013   19.08900
      H1    -5.79114   -7.18616   19.07720
       H    -7.09287   -8.61678    6.91349
       O    -7.39920   -7.71179    6.67990
      H1    -8.26212   -7.66745    7.10782
       H    -7.08786   -7.26986   16.57855
       O    -7.72328   -6.53300   16.66825
      H1    -8.13033   -6.50418   15.78241
       H    -6.20934   -8.88742   17.42583
       O    -6.81548   -9.00751   16.63576
      H1    -7.30067   -9.83052   16.82306
       H    -5.22447   -9.72238    7.38438
       O    -6.05486  -10.24765    7.41041
      H1    -6.45219  -10.07573    8.30016
       H    -3.07161   -1.80053   17.54586
       O    -3.61463   -2.52963   17.87315
      H1    -3.54435   -3.10984   17.12341
       H    -3.27157  -11.55430   11.60508
       O    -3.31668  -11.82737   10.69385
      H1    -3.15288  -11.04536   10.21681
       H   -11.61211  -13.11194   12.54329
       O   -11.32423  -13.34477   11.64429
      H1   -11.93131  -14.02341   11.41505
       H    -8.78586   -7.76043   17.24656
       O    -9.43253   -8.34908   17.65631
      H1    -8.79933   -8.99784   18.09702
       H    -9.64192   -2.56718   14.20699
       O    -9.30270   -3.46361   14.13616
      H1   -10.06018   -4.03802   14.29684
       H    -6.24722   -2.60617   16.57817
       O    -6.01226   -1.84053   17.05220
      H1    -5.20372   -2.20186   17.50093
       H   -14.10002   -5.84302   17.51431
       O   -13.13339   -5.84389   17.45181
      H1   -12.89739   -6.65126   17.95555
       H    -6.16981   -5.36213   14.74057
       O    -5.99047   -5.77934   13.85934
      H1    -6.49158   -6.57080   13.97790
       H   -14.03140   -7.65355   12.24636
       O   -13.86300   -7.73700   13.19152
      H1   -12.87104   -7.87025   13.18463
       H   -14.25409   -8.17300   15.26650
       O   -13.76067   -8.81749   15.72267
      H1   -13.66457   -9.57369   15.09005
       H   -13.03794   -8.75064   17.54286
       O   -12.57022   -8.39304   18.33332
      H1   -11.66926   -8.61225   17.95885
       H    -5.30478   -2.75511   13.90344
       O    -4.87116   -1.88652   14.12949
      H1    -4.96280   -1.90757   15.09909
       H    -9.42914  -10.64032   15.22490
       O    -9.73221   -9.72796   15.25376
      H1    -9.64480   -9.47505   16.19348
       H   -14.02841   -4.85101   12.48454
       O   -14.48838   -4.80690   11.62461
      H1   -13.73557   -4.69372   11.04915
       H    -7.73147   -2.54202    9.19779
       O    -7.52361   -3.42905    8.93991
      H1    -6.65602   -3.63035    9.31558
       H   -12.08939  -12.67618   17.17082
       O   -12.59271  -13.53197   17.16993
      H1   -12.63712  -13.76548   18.10645
       H   -10.91847   -8.44566   14.57129
       O   -11.48773   -7.72172   14.40275
      H1   -12.15347   -7.89398   15.06705
       H   -14.08892  -11.24082   13.77795
       O   -13.39150  -11.43355   14.41984
      H1   -13.84310  -11.71526   15.22452
       H   -10.42129   -8.84930    8.04366
       O    -9.76525   -8.22201    8.37185
      H1   -10.31657   -7.49212    8.53729
       H    -3.30467  -12.13001   14.87456
       O    -2.80059  -11.76738   14.11057
      H1    -2.35835  -12.52421   13.65268
       H    -6.98129   -4.39754    7.27344
       O    -6.72517   -4.88839    6.50375
      H1    -7.17394   -5.75609    6.56356
       H   -12.44159   -2.67319   10.63961
       O   -12.09334   -3.32604   11.33194
      H1   -11.14009   -3.35688   11.20064
       H   -13.32781   -3.23510   14.15823
       O   -13.15856   -4.11021   14.49273
      H1   -13.35031   -3.97146   15.46163
       H    -9.04218   -1.54518   11.48370
       O    -8.99926   -0.56045   11.51911
      H1    -8.02289   -0.46924   11.43519
       H    -9.84228  -13.68401   14.26025
       O    -8.85777  -13.68743   14.38042
      H1    -8.55459  -13.77118   13.46183
       H    -3.75678   -9.30826   12.15032
       O    -4.34442   -9.90846   12.58929
      H1    -4.28010   -9.65388   13.53757
       H    -4.30811   -6.39387    7.96658
       O    -4.09437   -5.63545    7.39292
      H1    -4.98717   -5.38516    7.01637
       H    -1.55434  -10.68401   14.82934
       O    -0.86242  -10.01146   15.04044
      H1    -0.60799   -9.53092   14.27844
       H    -9.76543  -14.13866   11.29085
       O    -9.13950  -14.90259   11.29596
      H1    -8.36160  -14.38478   10.96530
       H   -11.90388  -10.78742    8.50227
       O   -12.12340   -9.82524    8.44135
      H1   -12.94356   -9.87845    8.86588
       H    -3.98506   -8.55658    9.24009
       O    -4.34686   -7.63128    9.34213
      H1    -3.81098   -7.30634   10.09404
       H   -10.35549  -12.08298   17.93575
       O   -10.83510  -11.44210   17.49613
      H1   -11.41899  -11.20734   18.20399
       H    -2.04330   -6.35352   14.48387
       O    -2.75510   -5.79902   14.06349
      H1    -3.27839   -5.43261   14.78450
       H    -9.01984   -3.71993   12.09390
       O    -9.33308   -3.50853   11.20555
      H1    -8.55904   -3.57213   10.55170
       H    -9.06574   -3.89784   19.20235
       O    -8.85629   -4.75939   18.92314
      H1    -9.51478   -4.93881   18.24938
       H    -5.18676  -11.56472   10.53711
       O    -6.12128  -11.78283   10.34214
      H1    -6.59318  -11.21723   10.98503
       H    -1.70562   -7.91572   11.99173
       O    -2.64722   -7.84416   11.96450
      H1    -2.84263   -7.09566   12.59972
       H    -3.32011   -5.88146   17.20761
       O    -3.98733   -5.32871   16.75345
      H1    -4.73590   -5.35336   17.37218

