180
frame 4 | Written by MDAnalysis XYZWriter (release 2.4.3)
       H     7.23787    4.45478  -19.06102
       O     6.34670    4.80385  -18.82844
      H1     6.42294    4.45984  -17.92298
       H     4.40701    7.40714  -13.67691
       O     4.84670    7.81666  -12.90045
      H1     4.29613    8.54227  -12.54374
       H     0.22455   16.30083  -13.18418
       O     0.64089   16.94067  -12.71830
      H1     1.24949   17.24801  -13.38546
       H    10.56160   11.99002  -15.87997
       O    10.80185   12.91662  -16.00549
      H1    11.26122   13.14718  -15.15030
       H     4.16518   16.90730  -17.88680
       O     4.28203   16.36069  -18.68576
      H1     3.39213   16.63528  -19.05336
       H     2.68914   10.72590  -12.33374
       O     3.54828   10.30195  -12.19826
      H1     3.67975   10.38949  -11.22344
       H     7.93740   11.27939  -18.76890
       O     7.31338   10.65010  -18.34845
      H1     6.54345   11.25181  -18.16579
       H     6.79223    9.58037  -15.68468
       O     6.98874   10.53083  -15.72121
      H1     6.94813   10.70132  -16.66512
       H     2.73419   11.35537  -19.08501
       O     2.36335   12.18324  -19.38701
      H1     3.13836   12.72039  -19.37823
       H     7.47300   16.50069  -15.57047
       O     8.41158   16.49689  -15.37367
      H1     8.56029   17.39809  -15.18844
       H    10.15059   17.27348  -17.57633
       O     9.78518   16.41750  -17.80136
      H1     9.20566   16.25522  -17.05204
       H    -1.71565   15.66413  -14.93920
       O    -1.10083   14.93442  -15.15569
      H1    -1.53399   14.13477  -14.89641
       H     7.94000   14.27214  -19.98258
       O     7.51840   15.08302  -19.62654
      H1     8.22961   15.48341  -19.08893
       H     9.97330    9.64817  -17.56154
       O    10.58856    9.60570  -18.27892
      H1    10.37326   10.44107  -18.70690
       H     2.03439   16.61462  -11.66274
       O     2.87790   16.72747  -11.09761
      H1     2.79937   17.68238  -10.99133
       H     7.75563   12.48701  -15.56299
       O     8.10767   13.34042  -15.89113
      H1     9.06490   13.07294  -15.84275
       H     1.68659   13.31529  -18.09863
       O     1.45419   14.05831  -17.48084
      H1     2.33496   14.23759  -17.17115
       H     7.67006    6.56922  -18.40091
       O     8.43484    7.12319  -18.05194
      H1     8.49514    7.82106  -18.68718
       H     3.84181   11.28690  -16.66084
       O     3.08237   11.07069  -16.16110
      H1     2.45042   10.73540  -16.76487
       H     1.67456   12.03404  -15.14294
       O     0.83067   12.51402  -14.92807
      H1     0.73503   12.95451  -15.73417
       H     0.94381   10.25972  -12.52153
       O     0.72975   10.55564  -11.62360
      H1     0.80227    9.79298  -11.04962
       H     4.25286    7.64252  -16.76147
       O     3.43794    7.16103  -16.84296
      H1     2.87808    7.77833  -16.32278
       H     4.71678    5.47370  -18.66457
       O     3.85936    5.80261  -19.10163
      H1     3.73376    6.54888  -18.51863
       H     9.12940    7.16547  -12.95842
       O    10.05733    6.83184  -12.68279
      H1    10.77805    7.39191  -13.06366
       H     2.51541   19.01314  -16.95096
       O     1.69473   19.51625  -17.00483
      H1     0.99282   18.83591  -17.03868
       H     6.79665    7.12181  -15.05764
       O     6.50732    7.60193  -15.86984
      H1     6.95666    7.16500  -16.60630
       H    -1.88261    6.96280  -18.41839
       O    -1.51402    7.75083  -17.94909
      H1    -0.87020    8.05171  -18.53741
       H     7.76305    4.96719  -13.72070
       O     7.37350    5.80555  -13.95800
      H1     7.02609    6.04952  -13.10177
       H     1.32148    9.08605  -15.22819
       O     2.14849    8.68667  -15.07895
      H1     2.76965    9.38669  -15.18027
       H     3.84548   11.82662   -9.87714
       O     4.31908   11.00992   -9.70825
      H1     5.27961   11.27643   -9.78162
       H     1.59313    4.30197  -17.06901
       O     2.28326    4.59913  -16.43624
      H1     2.47480    5.42876  -16.89134
       H     6.89786    4.06221  -15.40971
       O     6.45597    3.96352  -16.22179
      H1     5.64592    3.50118  -15.97675
       H     0.25882   14.56466  -18.54860
       O    -0.24276   15.06289  -19.30710
      H1    -1.15084   14.89943  -18.93606
       H    10.69281    9.85311  -15.23841
       O    10.09140   10.39162  -15.82582
      H1     9.20560   10.10936  -15.50491
       H     0.47168   13.50447  -12.17872
       O     1.20245   13.92353  -12.72413
      H1     0.91269   13.60523  -13.61603
       H     4.26791    7.89799   -9.10058
       O     3.45978    8.39573   -9.18306
      H1     3.86398    9.31813   -9.18525
       H     6.85508    8.57617  -13.20655
       O     7.75562    8.59990  -12.89059
      H1     7.73344    8.59458  -11.92081
       H    -1.06301   10.19729  -14.39156
       O    -0.57428    9.45927  -14.04514
      H1    -1.01740    9.17731  -13.22477
       H    -1.49829   12.31425  -11.44668
       O    -1.17271   13.21617  -11.24747
      H1    -2.05509   13.55998  -11.04091
       H     6.93372   18.06434  -19.23190
       O     6.08486   18.42387  -19.06548
      H1     5.50128   17.64382  -18.98070
       H     4.75469   12.25535  -18.65060
       O     4.93281   11.81651  -17.82072
      H1     4.70247   12.55051  -17.21785
       H     2.61064   19.27638  -14.48196
       O     2.96541   18.54211  -13.97682
      H1     3.25077   19.04730  -13.14258
       H    -1.20689    7.56762  -16.20347
       O    -1.43645    7.13068  -15.38124
      H1    -1.19606    7.84225  -14.82001
       H     8.24810   16.32951  -13.45684
       O     8.17034   16.22658  -12.50061
      H1     7.42629   15.60365  -12.29727
       H     4.24133   13.72783  -15.32184
       O     4.24577   13.89036  -16.25888
      H1     5.15783   14.20812  -16.44117
       H     5.53819    6.58229  -11.57458
       O     5.73983    5.72872  -11.08824
      H1     6.64431    5.91651  -10.71888
       H     0.81143    9.39421  -17.93877
       O     0.62790   10.04203  -17.21261
      H1     0.15157   10.76347  -17.70404
       H     4.85264   16.59087  -15.89095
       O     4.15857   17.25296  -16.04672
      H1     3.79640   17.37233  -15.14229
       H     5.89800   14.15307  -12.40340
       O     6.09473   14.69988  -11.58136
      H1     5.76324   15.57898  -11.78543
       H     1.29788    6.87955  -12.30105
       O     1.55055    7.81928  -12.37542
      H1     1.34329    8.02396  -13.27415
       H     2.40674   13.54395  -11.20057
       O     3.03324   13.39356  -10.51590
      H1     3.77329   13.99167  -10.64723
       H    -3.23072   14.37520  -17.62111
       O    -2.28379   14.27000  -17.80416
      H1    -1.82073   14.60014  -17.03628
       H     1.09717    5.12416  -15.29760
       O     0.31057    5.12816  -14.64784
      H1    -0.24941    5.73174  -15.16673
       H     2.77697    9.28983  -19.86753
       O     2.72150    9.40788  -18.91197
      H1     3.57988    9.21897  -18.47514
       H     5.35938    9.13265  -19.40526
       O     5.47438    8.64617  -18.63606
      H1     6.12342    9.28395  -18.20863
       H     6.87045   15.21125  -17.77693
       O     6.47791   15.23102  -16.90275
      H1     7.06874   14.61585  -16.45911
       H     4.59661   17.02684  -11.83368
       O     5.50906   17.22127  -11.66013
      H1     5.81786   17.62507  -12.52600
       H     0.02049   16.74569  -17.95083
       O    -0.06630   16.97881  -16.99856
      H1     0.13637   16.11421  -16.60948
       H    10.48095   12.62505  -19.58138
       O     9.89647   12.21773  -18.90614
      H1    10.22195   12.66609  -18.10711
       H     5.26167   10.84934  -12.86365
       O     6.16050   11.28845  -12.96276
      H1     6.48658   10.97804  -13.82642

