180
frame 42 | Written by MDAnalysis XYZWriter (release 2.4.3)
       H   -11.02611   15.88996    6.21821
       O   -10.40065   15.35259    5.76808
      H1   -10.28858   15.70152    4.84287
       H   -16.69426   10.86875    9.01712
       O   -15.72012   11.24205    8.99950
      H1   -15.30679   10.68362    9.67704
       H   -18.01016   17.31942    2.82020
       O   -17.66330   16.40821    2.75618
      H1   -16.87918   16.51743    3.24085
       H   -17.78783   11.66946    2.79374
       O   -18.27074   12.20547    3.41451
      H1   -17.71443   12.05034    4.22091
       H   -15.06141   10.23913    7.45639
       O   -15.12264    9.50409    6.75784
      H1   -15.67610    9.93769    6.13911
       H   -14.65550   18.00593   13.11093
       O   -14.67378   17.38055   13.84715
      H1   -14.50196   17.95672   14.63850
       H    -7.90014   17.12661    6.74019
       O    -7.79422   16.19774    6.53012
      H1    -8.67035   15.86793    6.32748
       H   -13.26825   13.75995    6.79687
       O   -13.01439   14.01759    5.88007
      H1   -12.15392   14.28897    6.02004
       H   -11.97625   17.17471    9.96067
       O   -12.01350   16.25558    9.76406
      H1   -12.80874   16.09299   10.24885
       H   -15.66845   12.42340   12.15696
       O   -14.76544   12.04967   11.91923
      H1   -14.51448   12.89478   11.34847
       H   -19.70346   12.86916    5.87351
       O   -19.05848   13.56322    5.96421
      H1   -19.06792   13.50862    6.94476
       H   -13.38333   14.62706   12.02285
       O   -13.95502   14.88422   11.23716
      H1   -14.85686   15.02872   11.64533
       H   -18.18917   18.26463    8.49712
       O   -18.48276   17.63782    9.16966
      H1   -17.89709   16.88621    9.02247
       H   -17.95682   12.62133   12.75129
       O   -17.11545   12.75061   13.21972
      H1   -17.31991   12.41925   14.07801
       H   -11.96807   17.89725    1.97978
       O   -11.65325   17.16822    2.55805
      H1   -11.72721   17.53014    3.41987
       H   -14.44094   18.38997    2.76118
       O   -14.19457   18.60916    3.67948
      H1   -14.36259   17.83131    4.22038
       H   -14.30752   15.66097    5.01091
       O   -14.84946   16.42584    5.35947
      H1   -14.96188   16.18590    6.31590
       H   -17.07392   14.68024    7.89297
       O   -16.93092   15.24204    8.63059
      H1   -15.98283   15.10662    8.82360
       H   -12.66813   11.32786    9.75825
       O   -12.36784   12.15520    9.34977
      H1   -11.72632   11.74470    8.72140
       H   -12.61735   19.08382   11.07366
       O   -13.04274   18.69610   10.27976
      H1   -12.90101   19.22641    9.51319
       H   -11.50550    8.50820    2.75482
       O   -11.49407    9.44222    2.54276
      H1   -11.17966    9.86400    3.37777
       H   -10.57279   18.53465    7.37853
       O   -11.48703   18.21789    7.33644
      H1   -11.60654   17.56836    8.02219
       H   -13.74101   13.55831    8.96203
       O   -14.37490   13.64000    8.20610
      H1   -15.04053   13.02556    8.60890
       H   -16.98686    8.41813    6.00466
       O   -17.85748    8.50627    6.41887
      H1   -18.04993    7.58430    6.64991
       H    -8.00945   18.53028   10.08365
       O    -7.56576   17.70467    9.90034
      H1    -8.29307   17.09787   10.03676
       H   -18.50338   17.90758   11.07795
       O   -18.50194   18.44839   11.89457
      H1   -19.08183   19.15823   11.64350
       H   -13.15731   14.43413    3.25404
       O   -13.64382   15.23079    3.11600
      H1   -12.92110   15.86163    2.87291
       H   -18.16755    9.89524    0.18673
       O   -18.15278   10.83827    0.14369
      H1   -17.36421   11.04561    0.64536
       H   -18.99644   13.66467    2.69969
       O   -19.40035   14.40244    2.21576
      H1   -18.75259   15.04384    2.66500
       H    -7.91291   13.65240    8.08735
       O    -8.01481   12.68019    7.97803
      H1    -8.90272   12.58130    7.77212
       H   -11.95993   14.48618   -0.86992
       O   -12.73965   14.41918   -0.34993
      H1   -12.55847   13.81193    0.39284
       H   -18.25168   19.66331    3.76036
       O   -18.39317   18.98399    3.10783
      H1   -18.10842   19.48946    2.28525
       H    -8.81736   19.74301    7.05314
       O    -8.78287   18.78979    7.06967
      H1    -8.41080   18.63014    7.95373
       H   -18.11294   14.27564    1.10477
       O   -17.47740   13.88039    0.39980
      H1   -16.81336   14.58048    0.39890
       H   -18.10362   14.50537   -1.26365
       O   -18.58601   15.28978   -1.56446
      H1   -18.32734   15.83817   -0.86182
       H   -14.08006   12.69829    4.87933
       O   -14.78693   12.43070    4.30373
      H1   -14.64617   11.52527    4.12059
       H    -9.71323   12.51507    2.79152
       O    -8.77988   12.66775    2.77799
      H1    -8.50936   12.62757    1.85945
       H    -9.42015   15.97208   13.36610
       O    -8.98912   16.02511   12.47725
      H1    -9.60873   15.54992   11.84785
       H    -9.87080   11.87837   10.85661
       O   -10.45658   12.43915   11.36419
      H1   -11.17409   12.62311   10.76330
       H    -9.40008   14.55398    2.61014
       O    -9.62500   15.43796    3.04345
      H1   -10.24679   15.85281    2.44464
       H   -12.36140   14.96451   13.96859
       O   -12.67937   14.16959   13.49594
      H1   -13.65441   14.20329   13.77762
       H   -15.77365   15.52459   13.77986
       O   -15.46886   14.69334   14.17101
      H1   -16.31419   14.18867   13.86585
       H   -15.19026   11.23603    1.62976
       O   -15.77117   10.43206    1.79820
      H1   -15.43188    9.82741    1.06794
       H   -13.70814   18.38482    0.58752
       O   -14.60954   18.49609    0.93658
      H1   -15.07497   17.62531    0.79131
       H   -17.57462   17.13599    0.93554
       O   -18.09823   17.38226    0.18507
      H1   -18.96128   17.86434    0.35833
       H   -14.68617   12.71007    2.36081
       O   -14.53036   12.79585    1.40582
      H1   -15.35846   13.16561    1.02176
       H   -15.17910    9.88854    3.30519
       O   -14.53996    9.62215    3.97464
      H1   -13.72684    9.90749    3.56297
       H   -10.21499   15.35262    9.36493
       O    -9.49995   14.91014    9.81586
      H1   -10.03485   14.21068   10.23913
       H   -17.02636   16.97383    5.58296
       O   -17.80403   17.33083    6.03789
      H1   -18.55098   17.11143    5.47252
       H   -17.10976   15.36010   10.36432
       O   -16.96860   15.32425   11.31812
      H1   -17.53350   14.66224   11.64138
       H   -10.12399   10.27275    7.39894
       O   -10.71807   11.04000    7.27038
      H1   -11.48104   10.60506    6.89292
       H   -10.97416   19.42908   12.41657
       O   -11.87217   19.04733   12.57502
      H1   -11.67221   18.16875   12.95220
       H   -12.12496   18.16939   -1.34486
       O   -12.15613   18.02823   -0.39710
      H1   -11.66123   17.16973   -0.25085
       H   -11.97298    8.09700    6.11568
       O   -12.44088    8.83036    6.54552
      H1   -13.39429    8.77728    6.23966
       H   -11.36024   12.82596    2.26414
       O   -11.84894   12.76328    3.10105
      H1   -11.35868   12.20768    3.66728
       H   -15.13086   16.06164   -0.46819
       O   -15.30414   16.04467    0.46418
      H1   -14.50460   15.52859    0.67292
       H   -17.57621    9.02183    9.54967
       O   -17.90163    9.67312    8.91022
      H1   -17.81041    9.17678    8.09398
       H    -9.30770   11.12938    4.34700
       O   -10.24404   11.05380    4.41312
      H1   -10.34395   10.89616    5.37313
       H    -7.16208   16.60955    2.47831
       O    -7.50880   17.04878    3.29322
      H1    -8.44642   16.70112    3.42016
       H   -17.71342   12.36400    5.73994
       O   -17.02958   11.68869    5.62545
      H1   -16.28716   12.24619    5.30229

