180
frame 7 | Written by MDAnalysis XYZWriter (release 2.4.3)
       H   -14.65709    0.68186   -9.69860
       O   -14.66923    1.59715   -9.60587
      H1   -14.43137    1.95728  -10.47147
       H    -8.78157   10.51539  -13.17231
       O    -9.56845   10.92310  -12.78456
      H1    -9.40450   11.87960  -12.82769
       H   -13.09420    9.66402  -11.40971
       O   -13.03611    9.30866  -10.48649
      H1   -12.08471    9.18146  -10.35989
       H   -12.23182    3.92680  -10.71045
       O   -12.98200    3.53957  -11.19530
      H1   -13.69889    4.17186  -11.04494
       H    -9.79308    7.70449  -10.38573
       O   -10.07427    6.81358  -10.63031
      H1    -9.89066    6.72813  -11.59482
       H   -12.52214    4.60065   -8.60698
       O   -13.29526    4.82874   -8.06017
      H1   -13.55926    3.91441   -7.76827
       H   -13.52795    9.95360  -19.00726
       O   -14.10985    9.95675  -19.81206
      H1   -14.93495    9.59907  -19.38173
       H   -13.95698    1.25081   -6.52568
       O   -13.82990    2.08282   -7.04262
      H1   -13.97401    1.72901   -7.97426
       H   -11.92534    9.76750  -13.48094
       O   -12.81171    9.82798  -13.19068
      H1   -13.05340    8.87768  -13.27440
       H   -15.78239    3.22734  -13.60577
       O   -16.06161    2.40114  -13.18177
      H1   -16.83308    2.63944  -12.62617
       H   -13.30825   13.48728  -11.40534
       O   -13.12302   12.56030  -11.37788
      H1   -12.54734   12.35673  -12.12105
       H   -12.77805    6.26869   -5.59192
       O   -12.42707    5.37118   -5.58024
      H1   -12.73916    5.07117   -6.45802
       H   -17.06609    5.87458  -14.74547
       O   -17.81700    5.82024  -15.39340
      H1   -18.44296    5.82692  -14.63362
       H   -14.96424    5.76119  -13.34295
       O   -15.70092    5.35699  -13.81115
      H1   -15.32544    5.01180  -14.65145
       H   -18.85057    3.06532  -12.01367
       O   -18.32683    2.36668  -11.56152
      H1   -18.38905    2.80929  -10.71212
       H   -15.01802   11.17296   -6.73435
       O   -15.25006   11.29054   -5.82022
      H1   -16.22221   11.52950   -5.84556
       H   -10.25439    8.57501  -16.30021
       O    -9.69070    8.69095  -15.54103
      H1    -9.30933    9.56757  -15.71622
       H    -7.01102    8.84586  -11.33592
       O    -7.44519    9.47320  -10.68723
      H1    -6.87738    9.16379   -9.95432
       H    -9.05811    7.89129   -7.59003
       O    -8.69946    8.02923   -6.68082
      H1    -9.21766    7.34844   -6.19630
       H   -14.40358    6.47936   -8.27364
       O   -14.90686    7.19572   -7.68705
      H1   -15.06064    7.91323   -8.32919
       H   -18.34240    6.46611  -18.46311
       O   -17.74637    5.68503  -18.24884
      H1   -17.80842    5.72075  -17.30351
       H    -7.65562    8.05259  -15.35493
       O    -6.72725    7.93375  -15.61883
      H1    -6.45936    7.01745  -15.43743
       H   -11.51884   10.42067   -7.08674
       O   -12.29147    9.91220   -6.85308
      H1   -12.85476   10.11563   -7.59512
       H   -11.72865    9.88121  -17.60682
       O   -12.30104   10.61902  -17.57549
      H1   -11.71404   11.28220  -18.00529
       H   -15.06364   10.54661  -14.74854
       O   -15.67789    9.75760  -14.80513
      H1   -15.83044    9.55072  -13.87565
       H    -8.48694    4.11507  -13.09904
       O    -7.94228    4.90327  -12.93859
      H1    -8.69619    5.58655  -13.05406
       H   -11.41200    8.04317  -19.18413
       O   -10.71366    8.48137  -18.62253
      H1    -9.96496    7.90400  -18.63966
       H   -17.02156    4.67209   -6.95725
       O   -17.25355    5.62630   -7.07758
      H1   -16.54070    5.98492   -7.62623
       H   -11.68335    0.28062  -12.47904
       O   -12.47330    0.35477  -11.94187
      H1   -12.27807    1.10664  -11.39810
       H   -11.78874   11.95929  -10.09794
       O   -11.40835   11.98723   -9.22857
      H1   -10.44987   12.05661   -9.40702
       H   -19.68332    5.97303  -11.03925
       O   -19.11399    6.73283  -11.11848
      H1   -19.58510    7.37744  -10.53362
       H   -17.54873    1.97956  -15.68330
       O   -17.57076    1.25472  -15.01344
      H1   -17.14183    1.69002  -14.25047
       H   -12.93038    3.70660  -18.16517
       O   -13.03400    4.66125  -18.16315
      H1   -13.83600    4.71737  -17.68463
       H   -14.41413    3.19650  -15.77310
       O   -14.94491    3.95398  -16.07700
      H1   -15.74310    3.49857  -16.34422
       H   -14.85757    7.66008  -12.01152
       O   -13.97981    7.30338  -12.23597
      H1   -13.45935    7.86085  -11.63603
       H   -15.52484    2.63072   -6.79387
       O   -16.45763    2.92716   -6.56103
      H1   -16.34507    2.89386   -5.59231
       H   -12.56423   13.05307  -16.24245
       O   -12.64206   13.77325  -16.91165
      H1   -12.58670   14.57250  -16.40847
       H   -17.16574    9.37263  -17.97133
       O   -16.99891    9.04006  -18.84529
      H1   -16.90585    8.10808  -18.61299
       H   -13.18743   10.89864  -14.37296
       O   -13.34533   11.51961  -15.04189
      H1   -12.95886   11.05242  -15.80338
       H   -10.31597    2.18982   -9.07917
       O    -9.56673    2.26439   -9.69922
      H1    -9.63351    1.42862  -10.21201
       H   -10.05362    7.36452  -14.03530
       O    -9.97200    6.76026  -13.28336
      H1   -10.59779    6.02916  -13.53704
       H   -10.30262    3.96425   -9.58026
       O   -11.12807    4.50997   -9.63693
      H1   -10.73767    5.34335   -9.98222
       H   -17.45646    3.64985  -17.89375
       O   -17.09141    3.09482  -17.19279
      H1   -16.88670    2.22881  -17.66714
       H   -18.54718   12.06393  -14.33211
       O   -17.93294   11.70259  -13.63894
      H1   -17.96115   10.72549  -13.73467
       H   -10.81947    2.62348   -6.55370
       O   -11.13585    1.99286   -7.22212
      H1   -12.05158    2.08868   -7.35805
       H   -10.40173    9.88884   -8.76331
       O    -9.96100    9.18504   -9.25274
      H1    -9.46079    9.75161   -9.86264
       H    -9.45703    2.32594  -17.18995
       O    -9.05315    3.20581  -17.35911
      H1    -9.71425    3.84965  -17.05895
       H   -14.44146   12.84502   -8.96904
       O   -14.61665   13.74978   -8.79295
      H1   -13.70957   14.06118   -8.59742
       H   -13.87462   -0.15375  -13.14193
       O   -14.66043   -0.23888  -13.67795
      H1   -15.28475    0.51268  -13.51715
       H   -11.31038    5.48036  -17.62821
       O   -10.38116    5.58993  -17.29157
      H1    -9.85636    5.92586  -17.98353
       H   -18.31496   10.78833   -9.67759
       O   -17.72156   11.55212   -9.61612
      H1   -17.67688   11.79272   -8.62252
       H   -17.41607   11.44261  -17.17030
       O   -17.62642   10.62847  -16.71794
      H1   -16.96760   10.45069  -15.99378
       H   -16.36147   11.34458  -12.43903
       O   -15.54959   10.82643  -12.21348
      H1   -15.29917   11.17816  -11.34850
       H   -17.31480   14.69816  -13.38544
       O   -16.37845   14.47740  -13.26252
      H1   -16.52453   13.50875  -13.38395
       H   -12.80721    8.45953   -5.68332
       O   -13.24352    7.86145   -4.99738
      H1   -14.14304    8.25714   -4.79330
       H   -11.23573    3.80394  -14.19425
       O   -11.45553    4.59534  -13.66344
      H1   -11.90141    4.12410  -12.89722
       H   -13.72312   10.42334   -9.40345
       O   -14.26783   10.85790   -8.72879
      H1   -15.12173   10.55350   -8.94281
       H   -17.26590    8.40091  -11.95559
       O   -16.61401    7.73196  -11.70596
      H1   -17.18807    6.92523  -11.57323
       H   -13.72488    1.50945  -14.05724
       O   -13.14248    2.01470  -14.63999
      H1   -12.74840    1.29997  -15.12102
       H   -16.57254    8.78445  -10.00376
       O   -16.35233    9.29841   -9.23837
      H1   -16.90445   10.07592   -9.42067

