180
frame 4 | Written by MDAnalysis XYZWriter (release 2.4.3)
       H     8.65078    9.60754    1.71796
       O     8.79943    9.27817    2.65311
      H1     8.80914   10.11621    3.12074
       H     8.83555   15.02264   -4.64393
       O     9.67544   15.52456   -4.67089
      H1     9.44024   16.32515   -4.14228
       H     7.41001   16.30020    2.76134
       O     7.05105   15.39278    2.91441
      H1     7.83270   14.83008    3.18138
       H    12.46081   14.93898    0.59203
       O    12.16689   14.60919    1.49578
      H1    12.08596   15.49983    1.87947
       H    15.13103   11.25863    5.39189
       O    15.59601   12.10461    5.24324
      H1    14.93055   12.72911    4.90536
       H     6.65466   13.66819   -2.47372
       O     7.03686   12.74764   -2.36803
      H1     7.16123   12.44803   -3.30155
       H    15.80218   11.01544   -0.02529
       O    16.49422   10.37952    0.14504
      H1    16.67825   10.56218    1.06491
       H    16.05829   14.54684    2.45123
       O    16.81053   15.07965    2.77668
      H1    17.22348   14.42454    3.40137
       H    12.41198   17.81187    2.21713
       O    11.97889   17.03844    2.62289
      H1    12.25891   17.24104    3.55930
       H     7.92654   13.09347    0.84461
       O     8.08198   12.10938    0.94210
      H1     7.49563   11.87269    1.63840
       H     2.94640   14.31517    1.01313
       O     2.78881   13.85209    1.87763
      H1     3.49745   14.23940    2.48997
       H     6.50689   17.38927    5.08727
       O     6.32433   17.97160    4.31954
      H1     7.16451   18.15885    3.89216
       H    13.87124   14.79199   -1.34159
       O    12.88697   14.99373   -1.37733
      H1    12.50024   14.17780   -1.63784
       H     4.27223   11.56132   -1.75037
       O     3.77329   12.14910   -2.34009
      H1     3.12975   11.48581   -2.64412
       H    12.05118   19.56141   -0.64240
       O    12.44280   18.72801   -0.30418
      H1    13.27872   18.96839    0.08297
       H    11.64979   12.06198   -2.29957
       O    11.81876   11.48317   -1.48456
      H1    11.25234   11.95352   -0.85904
       H    11.50508   16.79946    5.23627
       O    12.30659   17.33371    5.26050
      H1    11.97119   18.04184    5.83203
       H     5.12639   11.42516    0.15360
       O     5.53400   11.13085   -0.68515
      H1     5.92012   11.90257   -1.02660
       H    14.07289   11.57404    2.32396
       O    14.79625   12.05758    1.97541
      H1    15.49045   11.56142    2.48286
       H    14.16062   10.25686   -3.07943
       O    13.90302    9.32362   -2.92411
      H1    13.95667    9.18662   -1.99638
       H    10.15025   16.11128    0.29610
       O     9.37294   16.59978   -0.06626
      H1     9.37324   17.36079    0.52774
       H     4.21232   10.99210    1.89359
       O     4.74267   11.83090    1.82503
      H1     3.97273   12.45297    1.90766
       H    14.19988   12.12967    0.29413
       O    14.39369   12.05758   -0.70763
      H1    13.47823   11.74820   -0.92249
       H     8.55429   13.48007    4.51070
       O     9.10528   13.79023    3.78744
      H1     9.62976   14.48418    4.26458
       H    11.21939   13.59829   -3.96695
       O    11.56906   12.69026   -3.82805
      H1    10.86042   12.19467   -4.27297
       H    13.51414    7.60430    2.35643
       O    13.13128    8.46054    2.28328
      H1    13.01511    8.62440    1.38138
       H     9.77963    5.02724    0.03441
       O    10.53771    5.66636    0.18852
      H1    11.18087    4.90854    0.22923
       H     6.91854    7.29599   -0.28939
       O     6.64481    6.55284   -0.83075
      H1     7.30646    5.89715   -0.64943
       H     9.48700   11.83998    4.38220
       O     9.63729   11.02082    4.87054
      H1    10.47036   10.74441    4.45822
       H     7.42789    7.65201    3.53717
       O     7.01878    6.78201    3.37021
      H1     6.93524    6.78262    2.46132
       H    13.28029    9.38591    5.26252
       O    14.24182    9.71107    5.42655
      H1    14.67366    8.86302    5.70001
       H     9.00219   18.31456    2.53389
       O     8.19922   17.85849    2.38618
      H1     7.67285   18.50084    1.83937
       H     8.85015   13.09796   -1.11473
       O     9.72486   13.36533   -1.43134
      H1     9.46497   13.50664   -2.32556
       H     9.89082   10.64154   -5.63487
       O     9.69013   10.79590   -4.63985
      H1     8.88733   11.27384   -4.74548
       H    10.50217    6.72810    1.69391
       O    10.21590    6.96999    2.59364
      H1     9.80546    7.86194    2.47066
       H     5.52713   13.75099    6.20627
       O     4.63197   14.11991    6.35076
      H1     4.42213   14.39125    5.41558
       H     5.39775   15.84579   -3.48183
       O     6.40807   15.91987   -3.40600
      H1     6.52456   16.80325   -3.78695
       H     9.76849    9.18181   -2.16524
       O    10.18189    9.46258   -1.36849
      H1    10.68799   10.29811   -1.52130
       H     9.59608   15.69106    6.47348
       O    10.24231   15.55026    5.71655
      H1    10.78206   14.82865    6.08050
       H    12.02463   11.67042    2.57078
       O    12.39676   11.23083    3.36940
      H1    12.48669   10.31327    3.10383
       H     7.72097   12.68800    6.52909
       O     7.26922   13.33343    5.92770
      H1     6.77283   12.68178    5.35083
       H     4.23300   16.25971   -0.40833
       O     4.50347   16.28394    0.52092
      H1     5.28677   15.73129    0.51132
       H    10.04066   12.45627    1.18682
       O    10.96533   12.28755    1.19937
      H1    11.29810   13.25147    1.36504
       H     9.11770    9.32171   -3.83331
       O     8.66357    8.69284   -3.19482
      H1     8.94523    7.86191   -3.59680
       H     7.02816    8.90013   -2.80449
       O     6.12763    9.12471   -2.48165
      H1     6.30666    9.76222   -1.75988
       H    10.93132    8.39546    5.69473
       O    11.54452    8.63385    4.98768
      H1    11.49078    7.91039    4.36227
       H    14.01828   16.89375    5.20827
       O    14.86641   16.42736    5.45344
      H1    14.78976   15.65279    4.81527
       H     8.36332    9.44347   -0.52909
       O     7.63691    9.30061    0.06984
      H1     7.26133   10.20304    0.04960
       H    11.68768    8.72522   -0.93682
       O    12.59633    8.65381   -0.63850
      H1    12.83358    7.72077   -0.66383
       H     8.67830   13.18636   -5.69386
       O     8.08596   13.04480   -4.99481
      H1     7.20038   13.14510   -5.38617
       H     7.15604   15.13120    1.11172
       O     6.99121   14.92373    0.20210
      H1     7.39722   15.74490   -0.19138
       H    16.35513   14.89213   -2.02582
       O    15.51257   15.48062   -1.95295
      H1    15.15150   15.40143   -2.87637
       H     3.62311   16.04997    4.03388
       O     4.18750   15.30624    3.79673
      H1     5.02671   15.72347    3.49188
       H    12.74840   13.03489    7.18885
       O    12.77659   13.78053    6.54514
      H1    13.33668   14.41343    7.06944
       H    13.39253   13.68149    4.70897
       O    14.07457   14.07979    4.17312
      H1    13.89237   13.81441    3.23474
       H    13.38398   11.94885   -3.87816
       O    14.20738   11.68903   -4.32904
      H1    13.76813   11.29938   -5.05888
       H    12.70139   16.43580   -2.35646
       O    12.61064   17.35015   -2.65364
      H1    12.68638   17.83273   -1.79888
       H     8.46974   10.20906    6.03448
       O     8.00594    9.84623    6.81832
      H1     8.31787   10.54590    7.41254
       H     9.78451   17.05616   -2.02990
       O     9.85547   17.64186   -2.82539
      H1    10.82522   17.68155   -2.96242
       H     5.99060   11.50664    3.16990
       O     6.53635   11.44167    3.98225
      H1     6.01830   10.84492    4.59180

