180
frame 10 | Written by MDAnalysis XYZWriter (release 2.4.3)
       H    11.11016   10.61827  -16.48666
       O    11.23907   11.64777  -16.59068
      H1    12.08769   11.82402  -16.25177
       H    14.68559   -6.02793  -17.80983
       O    14.79760   -5.51686  -18.62553
      H1    14.00822   -5.83408  -19.10212
       H     7.11548    2.00142  -17.84504
       O     7.06666    2.37317  -18.75973
      H1     7.87512    1.98949  -19.17836
       H    12.62970    4.39194  -17.96453
       O    11.96092    4.89015  -17.44499
      H1    11.31291    4.20403  -17.32691
       H    12.19271    9.07544  -13.41286
       O    11.99846    8.43406  -14.07485
      H1    12.66099    7.67992  -13.98240
       H    11.90215   -4.04842  -16.65926
       O    12.36867   -3.82153  -15.78810
      H1    12.65484   -4.68306  -15.40195
       H    13.35718    0.82290  -11.49093
       O    12.86283    0.00249  -11.64154
      H1    13.14627   -0.46527  -10.88420
       H     8.23201    0.25711  -12.41574
       O     8.46243    0.57713  -13.26801
      H1     8.83884    1.45991  -13.17680
       H    18.72144    2.58376  -12.82882
       O    18.86321    1.66281  -12.54620
      H1    19.44875    1.89145  -11.78006
       H    17.89592    9.89867  -16.17478
       O    17.78782   10.51538  -15.39392
      H1    17.89437    9.88615  -14.66721
       H    12.35541   -4.22136  -12.65951
       O    12.70049   -3.31276  -12.57882
      H1    12.32257   -3.03221  -13.44588
       H    16.53737    6.90610  -14.85844
       O    17.46224    6.52770  -14.92249
      H1    17.85513    7.14458  -14.24719
       H    13.99732    4.51968  -19.69672
       O    13.62772    3.80972  -19.13085
      H1    13.24312    3.26118  -19.77640
       H    15.50949    1.01222  -10.42924
       O    15.02872    1.83141  -10.80565
      H1    15.65871    2.56279  -10.60244
       H     8.38444    6.68849  -17.89748
       O     8.03728    7.48857  -17.50477
      H1     8.79747    8.04605  -17.44685
       H    11.21545   -1.20664  -15.73090
       O    10.53892   -1.28894  -16.44176
      H1     9.76955   -1.35657  -15.80392
       H    15.74013   10.50533  -14.56098
       O    15.04992   10.60380  -13.92589
      H1    15.48748   11.07737  -13.23367
       H     6.14735   -0.05735  -16.36996
       O     5.20218   -0.22481  -16.13704
      H1     5.02429    0.60472  -15.64453
       H     9.48080    2.63196  -11.05955
       O    10.04951    2.67728  -11.80608
      H1    10.69605    3.37679  -11.58978
       H    15.16765    5.14794  -12.80200
       O    14.44228    5.77892  -12.71852
      H1    13.87231    5.62523  -13.49902
       H    11.18899    2.49806  -16.41456
       O    10.41200    2.69855  -17.01877
      H1     9.85483    3.21759  -16.43502
       H    15.84745    3.20722  -13.74578
       O    16.36082    3.91010  -13.27263
      H1    16.69874    4.36617  -14.01316
       H    12.37702    5.39553  -15.54719
       O    12.24095    5.29149  -14.58108
      H1    11.40595    4.84167  -14.48621
       H    15.69563   -2.73869  -17.91900
       O    15.95415   -3.16139  -18.74043
      H1    15.35054   -3.91449  -18.73827
       H    18.86591    9.27907  -17.98274
       O    18.27350    8.71246  -17.39432
      H1    18.74839    7.89490  -17.13285
       H    14.03903   11.66046  -17.91860
       O    14.55765   12.42228  -17.59749
      H1    15.32671   12.42967  -18.15477
       H    14.00106   -2.76951  -16.38904
       O    14.80287   -2.25521  -16.42846
      H1    15.30041   -2.42676  -15.66474
       H    16.56236   -1.49719  -14.42000
       O    16.75724   -2.46625  -14.51483
      H1    16.26210   -2.81697  -13.74736
       H     9.43851    8.22846  -12.45454
       O     9.97318    7.48407  -12.77406
      H1    10.64233    7.97677  -13.25704
       H     6.46521    5.28887  -15.86477
       O     5.88868    5.76713  -16.48935
      H1     6.26660    6.65038  -16.49159
       H     7.94443    4.13479  -14.44035
       O     7.41024    3.47677  -14.98720
      H1     6.50296    3.57680  -14.60584
       H    11.29494   -2.40813  -17.90320
       O    11.32139   -3.25877  -18.30433
      H1    10.38917   -3.25016  -18.65070
       H    10.17421   -0.44999  -12.17494
       O    10.43318   -1.39094  -12.23477
      H1    10.79369   -1.36346  -11.33512
       H    10.64392   -3.82635  -14.97647
       O     9.77908   -3.65790  -14.53836
      H1     9.33598   -4.47003  -14.77174
       H    14.94865    3.04187  -18.83194
       O    15.80372    2.62726  -18.49228
      H1    15.40177    1.76757  -18.30848
       H    18.72893    6.18312  -16.45421
       O    19.56805    6.33121  -16.81978
      H1    19.41984    5.82562  -17.65048
       H    11.13701    8.75469  -15.76542
       O    10.43820    9.10513  -16.37569
      H1     9.64750    9.33298  -15.86675
       H    14.92553    8.66561  -14.40077
       O    14.79536    7.83751  -14.82695
      H1    14.63862    8.15255  -15.72729
       H    10.00440   -0.11481  -17.88709
       O     9.67227    0.52148  -18.57070
      H1     9.83019    1.39327  -18.16304
       H    18.14314   -3.08835  -16.15728
       O    18.36593   -3.27715  -17.09620
      H1    17.47525   -3.31361  -17.44966
       H    14.11536    8.83873  -18.31348
       O    14.38957    8.15990  -17.63236
      H1    15.26082    7.89255  -17.95631
       H     9.25434    5.49120  -13.96278
       O     9.46139    4.53382  -14.00642
      H1     9.65934    4.28850  -13.06947
       H    13.07918    1.93150  -14.99415
       O    12.55379    1.72152  -15.80706
      H1    12.17106    0.84691  -15.50013
       H     7.60320    1.47766  -15.70529
       O     7.57842    0.76111  -16.38666
      H1     8.55169    0.67115  -16.44129
       H    12.55411   -0.46588  -13.51010
       O    12.23434   -1.05224  -14.23916
      H1    11.47718   -1.53402  -13.81118
       H    14.25835   -0.22916  -17.39098
       O    14.17765    0.64916  -17.69913
      H1    13.90342    1.09981  -16.90947
       H    15.13699    8.90647  -11.42556
       O    15.87328    8.35251  -11.80037
      H1    15.35224    7.67962  -12.19674
       H    18.80157    2.67391  -17.09108
       O    17.89267    2.63703  -16.59713
      H1    17.22356    2.85158  -17.28182
       H    12.44766    5.07127  -10.44054
       O    12.34156    4.38611  -11.11866
      H1    13.00026    4.75091  -11.73527
       H    15.98255    4.88763  -10.34724
       O    16.51765    4.08134  -10.50205
      H1    16.43109    3.87929  -11.44881
       H    12.43439    0.56910  -18.91762
       O    12.20649    0.95245  -19.76093
      H1    11.23495    0.79463  -19.71177
       H     6.82622    4.98244  -18.11486
       O     7.28511    5.03822  -18.94416
      H1     7.27791    4.06280  -19.20347
       H    11.50858   -6.42466  -19.79148
       O    12.31326   -5.79075  -19.70382
      H1    11.93993   -5.08096  -19.15702
       H    17.09002    0.37824  -14.12208
       O    16.35828    0.26390  -14.80902
      H1    16.90027    0.42920  -15.61513
       H     7.98355   -0.14417  -19.19225
       O     7.45560   -0.80171  -19.70420
      H1     6.74624   -0.99946  -19.06292
       H    10.43462   13.70323  -18.90687
       O     9.95211   12.85769  -18.94775
      H1    10.68712   12.23083  -18.84498
       H    15.22029    1.23399  -14.05604
       O    14.53623    1.93585  -13.92580
      H1    14.42792    1.89859  -12.96221
       H    11.99313   10.45910  -19.07274
       O    12.97140   10.51132  -18.91915
      H1    13.22152   10.76442  -19.80620
       H    19.42875   -0.31847  -15.62119
       O    19.08431   -0.10114  -14.73257
      H1    19.62518    0.71576  -14.54268
       H     8.04013   -1.12291  -14.44479
       O     8.04382   -1.75066  -15.25330
      H1     8.60566   -2.49207  -14.88783

