180
frame 8 | Written by MDAnalysis XYZWriter (release 2.4.3)
       H     6.63097   13.18616  -11.77272
       O     5.98566   13.79957  -11.35536
      H1     5.26915   13.91005  -11.98979
       H    -2.37745   15.99933   -1.47278
       O    -2.44532   16.93607   -1.26811
      H1    -1.73851   16.98351   -0.59703
       H     8.36826   15.57272   -5.73451
       O     9.18825   15.74370   -5.28489
      H1     8.85973   16.21725   -4.39635
       H    -2.94144   10.84781   -7.64198
       O    -3.26192   10.57643   -8.53430
      H1    -2.63206   11.14259   -9.01272
       H     5.15862    8.08647   -5.40167
       O     4.18606    7.84547   -5.27876
      H1     3.75470    8.45646   -5.92258
       H    -3.75565   16.66896   -4.40435
       O    -3.10284   15.97856   -4.30439
      H1    -3.70855   15.23867   -4.02366
       H     2.16658   10.80969   -0.07613
       O     1.25722   11.02146   -0.27789
      H1     1.03949   10.24438   -0.82501
       H     0.21757    8.04600   -8.58626
       O     0.10215    8.19997   -7.62777
      H1     0.08164    9.19379   -7.61772
       H     5.35215   12.36116   -2.99737
       O     6.20795   12.53760   -2.70279
      H1     6.74894   12.23855   -3.43882
       H     1.17708   15.35087   -1.88711
       O     1.64104   16.17161   -1.96093
      H1     0.85425   16.78179   -1.95855
       H     3.16417   19.27365   -4.17061
       O     2.16739   19.29933   -4.11690
      H1     2.03804   18.48859   -4.58558
       H    -0.26397   18.35937   -0.27929
       O    -0.62326   18.07061    0.58871
      H1    -1.34326   18.77132    0.70583
       H     3.12253   14.25152    1.17052
       O     2.60758   13.69202    1.74107
      H1     3.16327   13.26579    2.41296
       H     2.20183   16.64173  -11.26125
       O     2.87237   17.36500  -11.37458
      H1     2.23923   18.03906  -11.72877
       H     3.56960   11.74954   -2.01627
       O     3.50477   12.05064   -2.90226
      H1     3.25136   11.29031   -3.43149
       H     6.23202   10.19660   -0.68671
       O     6.44346   10.16616   -1.60880
      H1     6.29751   11.01536   -2.00617
       H    -1.79295   16.94312   -3.98906
       O    -1.19240   17.72003   -4.04319
      H1    -0.52004   17.46819   -4.65920
       H    -4.47028   14.26447   -1.98593
       O    -4.13974   13.88646   -2.86528
      H1    -3.13109   13.90050   -2.69249
       H     1.21820   13.50247   -8.08575
       O     0.34414   13.78765   -8.32253
      H1     0.13867   14.53414   -7.76234
       H     4.62528   11.09524    0.44031
       O     3.99543   11.62311   -0.07471
      H1     3.86022   12.41069    0.47828
       H     1.94633   12.87405   -2.62486
       O     1.19386   13.17819   -2.12407
      H1     1.11740   12.50540   -1.44812
       H    -0.81004   13.67629   -2.20745
       O    -1.39124   14.40974   -2.51684
      H1    -1.29999   14.28157   -3.49372
       H    -1.60951   12.29560  -10.58005
       O    -1.03481   11.94584   -9.86149
      H1    -0.68371   12.80529   -9.50928
       H     2.49802   14.27722   -5.23181
       O     2.28733   13.75002   -6.01053
      H1     1.46557   13.36199   -5.68180
       H    -1.03932   13.66027   -5.95334
       O    -0.72084   13.13788   -5.15842
      H1    -1.47826   12.58425   -5.01836
       H    -3.31072   16.89309   -9.05709
       O    -2.65831   16.26043   -9.37994
      H1    -3.22778   15.51244   -9.56323
       H     3.18646   17.08783    1.09302
       O     3.38071   18.01037    1.19662
      H1     4.12206   18.15817    0.57938
       H    -1.77875   15.72021   -7.91709
       O    -1.30395   15.56099   -7.12193
      H1    -2.08305   15.65833   -6.48983
       H     4.09150   17.21193   -5.92285
       O     3.22925   17.15195   -5.54193
      H1     2.77831   16.63960   -6.27131
       H     4.26027    9.72097   -9.33728
       O     4.90465   10.35422   -9.73278
      H1     4.45408   11.23362   -9.69799
       H     6.07816   11.37495   -6.42271
       O     6.92568   11.16338   -6.81350
      H1     6.73758   11.12943   -7.74015
       H     9.06574   11.41478   -4.66553
       O     8.76797   11.39299   -3.77446
      H1     8.13927   10.64896   -3.88365
       H    -0.43940   19.03607  -10.19513
       O    -0.06078   18.60499   -9.43050
      H1     0.63406   19.24966   -9.18579
       H     4.96031   15.15988   -2.34428
       O     5.68941   15.06290   -1.68222
      H1     6.04101   14.22511   -2.00873
       H    -1.39708   10.03933   -0.88085
       O    -1.75201   10.92817   -1.01125
      H1    -1.17673   11.49151   -0.46572
       H     3.09787   15.77760   -0.89203
       O     3.57005   15.27361   -0.17296
      H1     4.48489   15.06038   -0.62695
       H     7.59508    8.43537   -5.08451
       O     6.83524    8.64010   -5.69469
      H1     7.12595    9.42948   -6.15602
       H     0.96620    6.96198   -4.46939
       O     1.42465    7.34005   -5.24394
      H1     0.74341    7.61437   -5.87724
       H     8.66072   18.87675   -5.50149
       O     7.89682   19.26775   -5.04915
      H1     7.17030   18.72279   -5.34141
       H     6.30426   14.87531   -9.95257
       O     6.04348   15.51197   -9.23985
      H1     6.49546   15.24213   -8.44158
       H    -3.81554   12.57980   -4.27806
       O    -3.42099   11.81405   -4.75585
      H1    -3.87945   11.82793   -5.58420
       H     4.82268    8.82574   -1.53818
       O     3.97414    8.40470   -1.57029
      H1     4.30806    7.56559   -2.04206
       H     8.15369   14.56086   -7.56698
       O     7.27966   14.58410   -7.12814
      H1     7.31159   13.67732   -6.85999
       H    -2.58919   18.94196   -5.06281
       O    -3.20843   18.86591   -5.85435
      H1    -3.95823   19.27080   -5.42329
       H     6.69532   14.58219    1.40854
       O     6.79480   13.70499    1.01280
      H1     6.43632   13.66966    0.14617
       H     7.34357   16.97027   -9.06464
       O     7.89335   17.60287   -8.54553
      H1     8.19063   18.28797   -9.16149
       H    -0.38962   18.29964   -2.40576
       O     0.27892   18.76778   -1.88535
      H1     0.90874   18.82924   -2.62454
       H     0.83502    7.95994   -2.34691
       O     1.27405    8.73046   -1.98306
      H1     2.18816    8.40371   -1.85042
       H     4.45998   13.62171   -8.71087
       O     4.14825   13.10964   -9.44009
      H1     4.78891   13.19608  -10.11483
       H     2.75208   15.07205   -3.38196
       O     3.59919   15.08109   -3.78320
      H1     3.51208   15.98958   -4.10159
       H     0.96756   17.42245   -6.65949
       O     0.07565   17.61035   -6.39090
      H1    -0.53819   16.97412   -6.86970
       H     1.76884    9.73689   -3.25950
       O     2.11924    9.99353   -4.11228
      H1     2.29400    9.11332   -4.38178
       H     3.87842   12.39078   -5.92413
       O     4.45953   11.80374   -6.47839
      H1     3.90016   11.06570   -6.62328
       H     4.91166   18.64026   -9.43075
       O     4.93036   18.16745   -8.57669
      H1     5.16906   17.27960   -8.90358
       H     5.09795   19.39571   -2.70100
       O     4.82498   19.00595   -3.58265
      H1     4.98680   19.74875   -4.18453
       H     5.66104   18.27301   -6.49667
       O     5.87896   17.61123   -5.88003
      H1     5.43088   17.94181   -5.10012
       H     1.83567    9.02127   -7.27189
       O     2.43117    9.72527   -7.52652
      H1     1.95861   10.57349   -7.44794
       H     1.85864   15.75615   -8.63555
       O     2.47184   16.27740   -8.07206
      H1     2.81034   16.97860   -8.65422
       H    -0.07720   11.66263   -7.84575
       O     0.08455   11.03467   -7.14174
      H1    -0.39411   11.46495   -6.44271
       H     6.83435   18.16821   -0.67566
       O     6.34268   17.39221   -0.32338
      H1     6.24936   16.77118   -1.05206

