180
frame 9 | Written by MDAnalysis XYZWriter (release 2.4.3)
       H   -16.89697   -9.91250   16.50323
       O   -16.75451   -9.46668   15.66886
      H1   -15.91764   -9.91377   15.35711
       H    -9.45431  -17.16222   13.99539
       O    -9.21103  -17.73617   14.75416
      H1    -8.24805  -17.85598   14.70592
       H    -8.76361  -11.73656   10.81705
       O    -9.71853  -11.66952   10.53360
      H1   -10.11688  -10.97956   11.12019
       H    -6.44106  -11.55011   14.97741
       O    -5.61700  -11.39993   15.42329
      H1    -5.05022  -11.26630   14.62864
       H    -6.82773   -8.58265   12.22366
       O    -6.30856   -8.59028   11.43767
      H1    -6.85987   -8.09636   10.78639
       H    -5.38353   -4.68730   17.03973
       O    -5.58664   -4.51297   16.09373
      H1    -6.05791   -3.69444   16.12604
       H    -6.63559  -10.80569   11.21266
       O    -6.96075  -11.66975   11.07026
      H1    -6.97645  -11.64636   10.11322
       H   -10.15189  -15.27943   18.80963
       O    -9.94990  -15.25117   19.74411
      H1    -9.09412  -14.83066   19.79971
       H   -12.76249  -11.34798   13.16172
       O   -12.88116  -10.99929   12.26353
      H1   -13.54657  -10.27015   12.33644
       H    -5.50903  -12.84154   11.95879
       O    -4.91924  -13.55939   12.11985
      H1    -4.08206  -13.13950   12.30091
       H   -12.43264   -4.35410   17.06490
       O   -12.64732   -3.66142   17.64237
      H1   -13.41314   -4.00812   18.14287
       H   -10.93701  -13.28812   19.71366
       O   -11.04259  -12.71454   18.90605
      H1   -11.04815  -11.77147   19.23594
       H    -8.24048   -9.52866   13.46571
       O    -8.37701   -8.65144   12.99868
      H1    -9.19433   -8.76842   12.48973
       H    -3.26894  -10.91807   12.91040
       O    -3.96994  -10.60491   13.48503
      H1    -3.71898   -9.73350   13.75909
       H   -12.33943  -16.72326   19.01853
       O   -13.17805  -16.57594   19.49680
      H1   -13.09249  -15.67194   19.81605
       H    -2.30487   -7.63054   16.29378
       O    -3.06847   -7.06507   16.69452
      H1    -3.84626   -7.61896   16.63089
       H    -8.04189  -16.95122   12.29280
       O    -8.83296  -16.38288   12.21363
      H1    -9.23384  -16.62350   11.35780
       H   -16.24078  -15.45854   17.39532
       O   -16.75974  -15.10212   16.63958
      H1   -16.09713  -14.43981   16.42289
       H    -2.62810  -11.97963   17.44496
       O    -2.64250  -11.80774   16.46167
      H1    -2.92200  -10.90456   16.43131
       H    -4.29071   -6.23950   17.80269
       O    -4.85475   -5.67629   18.30356
      H1    -5.50527   -6.34292   18.62753
       H    -6.13290   -7.07312   14.27569
       O    -6.17225   -7.02650   15.28193
      H1    -5.87758   -6.09871   15.44218
       H    -4.56768   -9.86555   17.72716
       O    -4.42359   -9.42638   16.89347
      H1    -5.00195   -9.94844   16.28367
       H    -5.76385  -13.83346   17.48339
       O    -5.88088  -12.93517   17.90063
      H1    -5.82166  -12.34588   17.10131
       H    -7.86527   -7.46799   15.60985
       O    -8.84967   -7.77004   15.62067
      H1    -8.89094   -8.40073   16.38421
       H   -14.89284  -11.91799   12.76467
       O   -15.76937  -12.05255   12.33784
      H1   -16.30697  -11.43693   12.90861
       H    -2.02970  -15.36675   18.48260
       O    -1.48911  -14.88632   17.81730
      H1    -2.06761  -14.75282   17.08139
       H   -15.40845   -9.81336   18.61322
       O   -14.78163  -10.51398   18.41534
      H1   -14.80990  -10.47334   17.47298
       H    -4.16430  -14.63076   15.85932
       O    -3.41420  -14.16886   15.37434
      H1    -3.67121  -13.25010   15.60342
       H   -11.36359  -16.12855    9.63319
       O   -11.23453  -16.26292   10.58232
      H1   -11.44350  -15.36969   10.90074
       H   -11.50156   -9.38265   15.98348
       O   -12.44048   -9.50566   16.20845
      H1   -12.53118   -8.98837   17.06394
       H   -13.47451   -8.85118   18.71892
       O   -13.10418   -8.01777   18.39414
      H1   -13.85788   -7.42918   18.38086
       H    -6.12341  -14.69033   13.48853
       O    -6.91597  -14.76575   14.06119
      H1    -7.61945  -15.01035   13.45683
       H   -10.95918   -7.94344   13.07409
       O   -10.77642   -7.16135   13.68302
      H1   -10.03967   -7.57339   14.25379
       H   -11.65648  -12.54033   15.29532
       O   -11.24606  -12.14548   14.51801
      H1   -11.19039  -12.90722   13.88487
       H   -15.53626  -15.22165   13.45140
       O   -14.93842  -14.45467   13.55434
      H1   -15.58234  -13.78302   13.29738
       H   -11.81103  -13.50469   17.42061
       O   -11.88663  -13.94976   16.49538
      H1   -10.98892  -14.27868   16.35102
       H    -8.60788  -11.50677   17.33424
       O    -8.78894  -12.45262   17.38016
      H1    -9.53075  -12.52889   18.00170
       H    -2.62928  -10.95105   19.55846
       O    -2.68761  -11.87377   19.33315
      H1    -1.74724  -12.05093   19.21671
       H    -3.75969  -15.60176   13.86009
       O    -3.53185  -16.40914   13.40185
      H1    -4.02080  -16.15210   12.56625
       H   -12.01505   -6.50095   15.14146
       O   -12.64301   -5.93875   15.60106
      H1   -13.34468   -6.47602   15.87231
       H   -11.21583   -8.49423   11.11232
       O   -10.72893   -9.05431   11.72329
      H1   -11.54897   -9.57259   11.89920
       H    -5.18404  -19.10573   17.87439
       O    -5.88731  -19.38357   18.42368
      H1    -6.04638  -18.53120   18.81369
       H   -13.67819  -10.39002   15.37264
       O   -14.44249  -10.84767   14.93565
      H1   -14.40729  -11.70409   15.35823
       H    -5.96664   -8.65571   18.83774
       O    -6.38584   -8.01699   18.21085
      H1    -6.00502   -8.31482   17.36345
       H    -8.79687  -14.96841   15.90450
       O    -9.61879  -15.32899   16.18983
      H1    -9.54406  -16.19722   15.78001
       H   -14.58133  -13.86412   15.25729
       O   -14.64326  -13.33541   16.06136
      H1   -13.90731  -13.76332   16.56777
       H    -8.91339  -11.74399   14.34253
       O    -8.11461  -11.23077   14.16183
      H1    -7.80221  -11.59793   13.33607
       H    -0.37310   -9.30875   16.59398
       O    -0.87785   -8.77421   15.93769
      H1    -0.30298   -8.86649   15.13596
       H   -12.06195  -13.69592   11.31777
       O   -11.20504  -13.84833   11.67770
      H1   -10.61103  -13.21504   11.25535
       H    -6.46976  -17.30451   14.55174
       O    -6.54837  -17.62445   15.45701
      H1    -5.97496  -18.41039   15.42541
       H    -6.76848  -18.50323   12.45851
       O    -6.61316  -17.59957   12.73647
      H1    -6.44239  -17.11285   11.88717
       H    -2.45372  -17.45930   19.53228
       O    -3.04831  -16.90086   19.00373
      H1    -3.85228  -16.98584   19.53226
       H    -8.46532   -9.04830   18.25143
       O    -9.11569   -9.59349   17.83764
      H1    -9.81162   -9.60618   18.48374
       H    -4.41556  -17.06363   16.39242
       O    -3.95487  -17.88777   16.75187
      H1    -3.62643  -17.55338   17.60464
       H    -6.12015  -15.93801   16.43686
       O    -5.39191  -15.67635   17.06444
      H1    -5.64679  -15.98517   17.91739
       H   -16.02941   -6.76331   16.06731
       O   -15.48924   -7.19096   16.73482
      H1   -15.85064   -8.07784   16.75998
       H    -9.41820   -5.79349   12.96703
       O    -8.64056   -5.30886   12.63599
      H1    -8.27633   -6.01298   12.13824
       H    -8.13977   -5.68209   17.25466
       O    -8.34249   -6.10507   18.09500
      H1    -7.60933   -6.73505   18.25629
       H   -11.48663   -7.43568   18.77047
       O   -10.82380   -6.87892   19.26003
      H1   -10.08025   -6.73024   18.59846
       H    -4.15673  -10.19231    9.89987
       O    -4.28742  -11.11829    9.91589
      H1    -3.81855  -11.32558   10.71611

