180
frame 5 | Written by MDAnalysis XYZWriter (release 2.4.3)
       H    15.37075    3.94128    3.71008
       O    15.04744    4.52385    4.40887
      H1    14.40396    4.04941    4.88359
       H    15.48785   17.27802   -2.01784
       O    15.75106   18.14751   -1.68607
      H1    16.64413   17.94449   -1.94618
       H    16.46517    9.69711   -7.65150
       O    15.94528   10.15773   -8.30839
      H1    15.17822   10.53117   -7.78130
       H    17.99852   12.27178    3.79874
       O    18.10154   12.42204    4.78401
      H1    17.18861   12.18038    5.07310
       H    12.62412   14.72404    0.69353
       O    12.42343   14.93076    1.62215
      H1    11.92915   15.71476    1.57169
       H    15.23066   10.85563    5.50859
       O    15.56604   11.78551    5.52701
      H1    14.86427   12.24745    5.00346
       H    18.33638   10.97941    2.19911
       O    17.40252   11.27967    2.02088
      H1    16.87332   10.56403    2.50141
       H    15.94492    6.63268    6.43364
       O    16.17682    6.80619    5.47476
      H1    15.78749    6.03972    5.09680
       H    16.03523   10.20598   -0.66229
       O    16.91946    9.79802   -0.45982
      H1    17.23678   10.40447    0.27920
       H    16.41774   14.33141    2.91759
       O    17.08126   14.87318    3.41313
      H1    17.59980   14.16597    3.86442
       H    14.17454    6.97085   -4.94550
       O    13.36676    7.27304   -4.53045
      H1    13.71018    7.62722   -3.69371
       H    16.92155    7.88006   -0.08653
       O    16.78041    6.91796   -0.04169
      H1    17.15577    6.68205    0.83025
       H    17.70578    7.03394    2.68047
       O    18.09990    6.17452    2.32092
      H1    17.99387    5.62765    3.11525
       H    16.81404    9.55314   -5.01041
       O    16.03615   10.01994   -4.75731
      H1    15.57477    9.42347   -4.10548
       H    13.64451    4.07967   -1.17151
       O    13.30591    3.13401   -1.33462
      H1    12.39647    3.30625   -1.66150
       H    13.01202   14.83045   -1.88666
       O    12.12902   14.97733   -1.47739
      H1    11.55939   14.79874   -2.21052
       H    11.71561    6.73267   -4.88397
       O    10.98279    6.56079   -5.53844
      H1    10.79543    5.64598   -5.37436
       H    11.16865   12.34453   -1.79589
       O    11.79321   11.71368   -1.28074
      H1    11.52730   12.00267   -0.39972
       H    18.45881   18.72539   -1.42367
       O    18.45900   17.79524   -1.91851
      H1    18.42621   17.26632   -1.10396
       H    18.36768   15.38312    0.57807
       O    18.38224   16.30348    0.27854
      H1    17.96070   16.73374    1.05043
       H    14.65827   13.01131    2.56317
       O    15.37753   13.43209    2.04805
      H1    16.05027   12.77007    2.05595
       H    13.91919   10.11828   -2.94908
       O    14.33820    9.22051   -2.82272
      H1    14.17691    9.17777   -1.88103
       H    19.93033    6.80541    4.62839
       O    19.34328    6.46709    5.35609
      H1    18.70255    5.84089    4.90438
       H    15.52729    5.65189   -5.13121
       O    15.20366    5.97789   -5.96284
      H1    15.98201    6.40851   -6.33152
       H    14.74708   12.18578    0.01072
       O    14.88434   12.13914   -0.95400
      H1    14.04628   12.03821   -1.36019
       H    19.77924   14.95029   -5.03708
       O    19.06374   15.29526   -4.50643
      H1    19.21835   14.84107   -3.69268
       H    12.75027    8.37773   -5.88653
       O    12.71558    8.78460   -6.79023
      H1    13.48578    8.23986   -7.20618
       H    10.53611   14.09055   -4.18808
       O    11.11992   13.40340   -3.83148
      H1    10.78502   12.54453   -4.15781
       H    14.95313    8.63116    2.48204
       O    14.06866    8.95584    2.63829
      H1    13.67168    8.91453    1.73921
       H    10.45422    7.04294   -0.07682
       O    11.07217    6.40042    0.21587
      H1    10.60373    5.60473    0.05374
       H    17.94004   11.29450   -3.44611
       O    18.06218   11.30931   -2.44381
      H1    17.35248   10.80396   -2.15129
       H    10.08444   11.47133    4.32934
       O     9.76974   10.63386    4.03745
      H1    10.51808   10.04224    4.02392
       H    16.38088    6.22006   -2.77975
       O    15.67668    5.56633   -2.87233
      H1    15.31573    5.80765   -2.01559
       H    13.74250    3.62303    1.61323
       O    13.22454    4.40460    1.46921
      H1    13.21298    4.74956    2.39720
       H    14.15603    8.98196    4.46025
       O    14.67248    9.20312    5.28265
      H1    15.30123    8.38830    5.29484
       H    17.47053   12.56011   -8.10723
       O    17.56460   13.16316   -7.39151
      H1    17.63225   14.02088   -7.81269
       H     8.91216   13.00519   -0.23892
       O     9.16689   13.53478   -1.03010
      H1     8.38518   13.34630   -1.58843
       H     9.93880   10.84149   -5.83153
       O     9.90164   11.15452   -4.86035
      H1     9.27552   11.87101   -4.93294
       H    16.89670   13.80378   -3.53619
       O    16.97896   14.12638   -2.64953
      H1    16.93877   13.31513   -2.15533
       H    10.81819    6.43548    1.85071
       O    10.47489    6.61141    2.76563
      H1     9.80396    7.26399    2.46760
       H    15.08358    6.19161   -0.15644
       O    14.29008    5.98678   -0.64287
      H1    13.69582    5.62018    0.08127
       H    18.46404   11.82048   -6.42462
       O    19.00369   11.16993   -5.96393
      H1    18.66441   10.36390   -6.36360
       H    10.51700    8.16843   -2.40411
       O    10.67435    8.62464   -1.57251
      H1    11.17587    9.40187   -1.99264
       H    12.24255   12.10974    2.78920
       O    13.00495   11.66508    3.25900
      H1    12.98197   10.80928    2.87685
       H    10.27040   12.32743    1.63218
       O    11.13203   12.48978    1.28175
      H1    11.25268   13.43729    1.39998
       H     9.60487    9.30515   -4.31152
       O     9.32552    8.33702   -4.21007
      H1     9.81858    7.84138   -4.88688
       H    10.56467    8.21623    5.69020
       O    11.27254    8.52806    5.09788
      H1    11.29828    7.76130    4.47699
       H     8.65610    8.28281   -0.96649
       O     8.03909    8.26162   -0.20832
      H1     7.34193    8.90183   -0.42698
       H    12.60885    8.49489   -0.46764
       O    13.45198    8.46889    0.03300
      H1    13.85778    7.66733   -0.40889
       H    14.90203   13.92915   -5.48017
       O    14.55141   14.84763   -5.52424
      H1    13.72276   14.92324   -6.03516
       H    15.42613   15.04619   -2.59764
       O    14.70999   15.61959   -2.74992
      H1    14.45887   15.23623   -3.66087
       H    13.05301   11.52161   -7.73456
       O    13.63253   11.21517   -7.03686
      H1    13.37139   10.24569   -6.95439
       H    17.68374    8.00430   -7.45721
       O    18.33860    8.57529   -6.99233
      H1    18.80081    7.85498   -6.54886
       H    13.26179   14.14962    5.05937
       O    14.18501   14.29782    4.71141
      H1    14.02108   14.43833    3.79408
       H    12.60789   12.28264   -4.24363
       O    13.47024   11.88801   -4.17770
      H1    13.51164   11.48749   -5.07721
       H    17.99131    4.25848   -1.74156
       O    18.61958    4.97325   -1.98030
      H1    19.05608    5.04209   -1.08798
       H    12.82850   16.94436   -2.36914
       O    12.44135   17.81396   -2.31250
      H1    13.01864   18.26032   -1.62495
       H    18.70351    7.89721   -3.46559
       O    17.92397    7.28023   -3.39265
      H1    18.33042    6.55012   -2.96393
       H    16.83213   16.60484    2.71750
       O    17.15857   17.47320    2.49210
      H1    16.35644   18.03938    2.29330
       H    17.02134    8.11847    4.20617
       O    17.24866    8.57908    3.38658
      H1    18.19068    8.55176    3.44532

