180
frame 3 | Written by MDAnalysis XYZWriter (release 2.4.3)
       H    18.62567   -8.94317   -8.29181
       O    18.21001   -9.75293   -7.99928
      H1    17.76235   -9.47394   -7.15780
       H    17.41175  -11.18078  -17.09467
       O    18.23323  -11.42154  -16.62063
      H1    18.59763  -10.56292  -16.33576
       H    10.28092   -7.43867  -16.25806
       O    10.39706   -7.60338  -17.19438
      H1    10.26905   -6.73581  -17.61315
       H    16.73848   -6.67725  -18.90671
       O    17.37030   -7.33850  -18.85274
      H1    17.79968   -7.04451  -18.03391
       H    10.11765   -8.61434  -11.67751
       O     9.20013   -8.30217  -11.81857
      H1     9.33792   -7.31013  -11.91382
       H     9.96908   -5.48946  -10.09118
       O    10.82500   -5.38565   -9.53734
      H1    11.24291   -6.19842   -9.81842
       H     8.28548   -8.87427  -10.43395
       O     7.63857   -8.91994   -9.67579
      H1     6.93191   -8.32444   -9.95561
       H     9.73982  -15.59917  -17.20230
       O    10.55127  -15.67289  -16.65074
      H1    11.23526  -15.30306  -17.27324
       H    16.38928  -13.62574  -15.19103
       O    15.45646  -13.66363  -14.92175
      H1    15.24915  -14.56784  -14.73882
       H    17.06817   -4.43570  -13.91953
       O    16.90431   -5.40278  -13.85852
      H1    15.99333   -5.43641  -13.48247
       H    14.11281   -4.87276  -13.51747
       O    13.96874   -4.57416  -14.37571
      H1    12.96469   -4.61981  -14.62903
       H    10.08190  -13.01397  -18.23870
       O     9.62471  -13.41152  -18.96664
      H1     8.70638  -13.14717  -18.82015
       H    13.86037  -16.57285  -15.11449
       O    14.57064  -16.23381  -14.55673
      H1    14.30391  -16.52175  -13.61029
       H    10.43164   -4.44053  -15.49943
       O    11.27024   -4.87354  -15.38098
      H1    10.99672   -5.67488  -14.92181
       H    19.25902  -13.16970  -15.33064
       O    19.06121  -13.94665  -14.80686
      H1    19.80743  -14.16410  -14.22666
       H     8.98216  -10.52554  -14.59492
       O     9.42029   -9.94918  -15.21693
      H1     9.00823   -9.98227  -16.10078
       H    11.46934  -11.84055   -8.65545
       O    10.53930  -12.15522   -8.64651
      H1    10.65441  -13.11946   -8.74993
       H    13.24241  -11.60994   -9.76003
       O    13.05828  -11.09461   -9.00993
      H1    13.89371  -10.61565   -8.93370
       H    10.80507   -3.50906  -13.02933
       O     9.81977   -3.48140  -13.16597
      H1     9.45745   -2.55795  -13.05524
       H    16.38206   -3.17674  -17.53683
       O    15.45683   -3.35021  -17.47116
      H1    15.30202   -4.27467  -17.33016
       H    12.52570   -5.62309  -18.66095
       O    13.45994   -5.82853  -18.56146
      H1    13.90742   -5.75025  -19.43975
       H    14.21486  -12.10598  -12.21864
       O    14.60963  -12.17382  -11.33073
      H1    15.56136  -12.00428  -11.34041
       H    11.80302   -8.56824  -17.44014
       O    12.46516   -9.29929  -17.51387
      H1    12.72631   -9.25761  -18.41329
       H    15.76837  -12.80356  -18.79859
       O    15.84717  -13.65677  -19.28230
      H1    15.76120  -14.41593  -18.69343
       H    15.79441  -10.27839  -17.88512
       O    16.01885  -11.08259  -18.30076
      H1    16.67307  -10.88663  -18.96025
       H    18.66548   -9.24153  -14.96443
       O    19.12676   -9.07076  -15.80637
      H1    18.95293   -8.13368  -16.11340
       H    18.47496   -4.82746  -18.14304
       O    18.44357   -3.87207  -18.34567
      H1    19.12048   -3.48929  -17.71647
       H    19.36460   -7.79945  -13.19463
       O    19.62933   -6.84015  -13.22814
      H1    18.80842   -6.34364  -12.96599
       H    12.35596   -8.82472   -9.37401
       O    12.28030   -7.86669   -9.14463
      H1    12.92778   -7.56935   -8.44797
       H    12.41507  -14.18525  -18.92774
       O    12.51022  -15.07207  -18.56138
      H1    13.43317  -15.16627  -18.27489
       H    20.00074   -4.12856  -10.90979
       O    19.50137   -4.92066  -11.14218
      H1    18.61279   -4.62256  -11.28937
       H    19.19983  -12.56466   -9.50359
       O    19.04076  -12.76595  -10.42528
      H1    19.12510  -13.77379  -10.46206
       H    14.87848  -14.18501   -8.27328
       O    15.26141  -14.28811   -9.15688
      H1    15.04946  -13.44499   -9.56911
       H     7.48101   -9.17123  -17.44705
       O     8.32086   -9.68678  -17.50998
      H1     9.00633   -9.01882  -17.62048
       H    10.15296  -10.86862  -10.30263
       O    10.64132  -10.40737  -11.03807
      H1    11.05493  -11.11702  -11.56484
       H    14.52141   -9.44294  -15.38186
       O    14.42953   -9.79946  -14.50274
      H1    13.87809  -10.58823  -14.63085
       H    12.37923  -12.23596  -14.83882
       O    13.01113  -12.45749  -14.10909
      H1    13.75154  -12.69366  -14.67612
       H    16.61134  -15.28597  -10.27883
       O    16.87304  -15.97591  -10.95369
      H1    17.22708  -15.44479  -11.69219
       H    16.87158   -7.31993  -10.08557
       O    15.91562   -7.47953  -10.32979
      H1    15.78682   -8.33483   -9.88655
       H    13.33731   -6.91588  -12.79751
       O    12.71031   -7.65081  -12.87285
      H1    13.13293   -8.32678  -13.41966
       H    10.09815  -14.65301  -12.93902
       O     9.60382  -15.11292  -13.69715
      H1    10.16740  -14.98555  -14.43588
       H     9.57006   -4.95198  -18.70730
       O    10.42306   -5.41946  -18.83772
      H1    10.15658   -5.91328  -19.61851
       H    18.65578   -6.75403   -8.97042
       O    18.82276   -7.14770   -9.87723
      H1    19.17984   -6.36168  -10.37967
       H    19.37059  -14.60474  -16.53965
       O    19.33750  -15.14645  -17.30862
      H1    19.11789  -14.74783  -18.20280
       H    19.50112  -10.24069  -12.97767
       O    18.93566   -9.41717  -13.03759
      H1    18.04257   -9.60685  -12.70473
       H    11.29398   -7.58150  -13.83516
       O    10.47413   -7.60967  -14.40499
      H1    10.07465   -8.46975  -14.18614
       H    15.12907   -6.40335  -11.45013
       O    14.59111   -5.70401  -11.97635
      H1    14.42521   -4.98828  -11.36141
       H    14.21408   -8.54709  -17.32462
       O    15.11336   -8.64726  -16.97571
      H1    15.34236   -7.69992  -16.84049
       H    16.38019  -10.07393   -9.06126
       O    15.53414  -10.00115   -9.47017
      H1    15.67634   -9.94027  -10.42165
       H    16.54392   -5.74856  -15.54388
       O    16.00713   -5.78225  -16.37999
      H1    15.18593   -5.35355  -16.10256
       H    11.73440  -13.97874  -11.49227
       O    11.29474  -13.45791  -12.16871
      H1    11.89746  -13.52173  -12.92318
       H     9.26548  -13.46800  -11.07145
       O     8.63128  -12.78501  -10.80665
      H1     8.69189  -12.85834   -9.84711
       H    18.00370  -12.47732  -11.91662
       O    17.22348  -12.46712  -12.46315
      H1    17.36261  -13.04337  -13.23238
       H    10.76334  -11.02822  -15.91728
       O    11.37342  -11.61857  -16.39090
      H1    11.85605  -10.97416  -16.94462
       H    11.29639   -4.03214  -18.39617
       O    11.51459   -3.15129  -18.03819
      H1    11.61423   -3.33294  -17.08399
       H     8.20911   -9.79038  -12.46713
       O     8.13802  -10.66183  -12.89322
      H1     8.53595  -11.26170  -12.27902
       H    15.26841  -15.52423  -16.74479
       O    15.32127  -15.88787  -17.63064
      H1    16.16896  -16.34557  -17.69600
       H    16.30511   -5.19597   -9.81559
       O    16.73033   -4.36129   -9.91095
      H1    16.11192   -3.90959  -10.52024
       H    16.70609  -10.84589  -12.47509
       O    16.39589   -9.98832  -12.13572
      H1    15.81229   -9.65486  -12.81165
       H    13.67863  -14.73557  -10.11081
       O    12.92426  -15.21366  -10.48339
      H1    13.39638  -15.84685  -11.03259

