180
frame 4 | Written by MDAnalysis XYZWriter (release 2.4.3)
       H   -19.45998  -10.54108   16.84834
       O   -18.81516  -10.32437   17.62034
      H1   -18.08265  -10.77481   17.25369
       H    -9.69432  -17.93998   14.62428
       O    -9.91697  -18.06865   15.54561
      H1    -9.49878  -18.91742   15.82963
       H    -9.15873  -10.63851    8.49123
       O    -9.08508  -11.49447    8.94771
      H1    -9.60938  -11.33458    9.76782
       H    -9.56051  -10.44071   12.17818
       O    -9.89572  -10.43966   11.29189
      H1   -10.76260  -10.85682   11.26630
       H   -14.41036  -10.12851   10.11468
       O   -13.67560   -9.66135    9.68461
      H1   -14.03414   -8.81989    9.34900
       H    -8.29639   -9.93175   15.26973
       O    -7.69215   -9.19225   15.17524
      H1    -6.83433   -9.48807   14.83921
       H   -12.03940  -14.02147    7.43524
       O   -12.33018  -14.92522    7.18121
      H1   -13.08048  -14.86054    7.82634
       H   -11.54810  -15.63573   18.15006
       O   -11.83292  -15.89513   19.04082
      H1   -12.65358  -15.41750   19.14726
       H   -18.61917   -6.86395   17.67100
       O   -19.44378   -7.37681   17.51059
      H1   -19.05483   -8.23925   17.40996
       H   -19.84538   -8.16057   13.09898
       O   -19.29061   -8.51123   12.40918
      H1   -19.64956   -8.15644   11.58709
       H   -13.17692  -11.35017   14.27435
       O   -13.80453  -10.71986   14.74788
      H1   -14.59996  -11.25237   14.63060
       H   -13.51892  -12.95977   17.25797
       O   -13.22859  -13.68527   16.69301
      H1   -12.24043  -13.50947   16.66270
       H    -8.83276   -8.17413   14.13399
       O    -9.21054   -7.77151   13.37908
      H1   -10.16126   -7.86972   13.43044
       H   -13.17648  -18.64415   18.89032
       O   -13.67482  -18.33138   19.64951
      H1   -13.21052  -17.44283   19.72788
       H   -19.75286  -19.36724   16.11040
       O   -18.96133  -18.92103   15.76387
      H1   -18.58125  -19.62684   15.25633
       H    -8.92400  -18.45371   12.61476
       O    -9.64026  -17.79558   12.78879
      H1   -10.42734  -18.09156   12.29649
       H   -15.89278  -14.94119   16.99440
       O   -15.81359  -14.24988   16.35973
      H1   -14.86797  -14.20023   16.22725
       H   -12.82764  -11.32512   10.19565
       O   -12.16825  -11.97919   10.10492
      H1   -12.66533  -12.85657   10.34823
       H    -9.76652   -6.38853   16.86921
       O   -10.72781   -6.49413   17.12905
      H1   -10.80745   -7.29022   17.69426
       H   -15.03155  -19.33692   12.09222
       O   -15.53733  -19.15173   12.91855
      H1   -15.24169  -18.24056   13.11991
       H   -15.54408  -14.90547    8.73531
       O   -14.77022  -15.40730    8.40051
      H1   -14.98288  -16.33618    8.47477
       H   -19.56448  -10.30847   12.32706
       O   -19.69917  -11.24100   12.33272
      H1   -18.85616  -11.61831   12.62916
       H   -17.79562  -14.06348   15.98497
       O   -18.75790  -14.32388   15.83403
      H1   -18.65803  -15.23042   15.46122
       H   -10.09949  -15.51390    9.42572
       O   -10.33162  -16.24085    8.84153
      H1   -10.83121  -15.76737    8.18730
       H   -16.22733  -11.81814   10.10583
       O   -15.92079  -11.00194   10.58413
      H1   -16.44292  -11.13428   11.41334
       H   -15.43484   -5.41288   17.45709
       O   -14.52657   -5.23667   17.13218
      H1   -14.14225   -6.11883   17.34445
       H   -15.11337  -18.66797    9.32199
       O   -15.54822  -18.14161    8.55835
      H1   -14.77853  -18.28177    7.93096
       H   -18.74570  -10.75142   10.33479
       O   -18.37028  -10.42983    9.49157
      H1   -17.42624  -10.36032    9.82540
       H   -11.23154  -17.10995   10.35852
       O   -11.85706  -17.35343   11.06092
      H1   -11.65339  -16.67724   11.68414
       H   -17.63397   -7.57759   12.61893
       O   -17.04215   -6.88136   12.95768
      H1   -16.38731   -6.71610   12.29646
       H   -15.97384   -8.78193   16.54733
       O   -15.15168   -9.28637   16.89863
      H1   -14.58401   -9.19234   16.09742
       H   -14.56882   -7.53907   19.10468
       O   -13.87137   -7.48838   18.35281
      H1   -14.14618   -8.19860   17.79115
       H    -8.30789  -15.36185   14.22099
       O    -8.84888  -14.78052   13.71601
      H1    -9.16561  -15.36995   13.03970
       H   -12.19950   -7.49683   14.23571
       O   -11.96308   -6.56663   14.46746
      H1   -11.65343   -6.80858   15.35865
       H   -14.45260  -16.95633   11.18020
       O   -14.74720  -16.43467   11.91115
      H1   -15.69884  -16.45327   11.77912
       H   -17.66294  -13.94356    9.57574
       O   -16.91224  -13.35805    9.23504
      H1   -17.13013  -13.40245    8.23496
       H   -11.99465  -13.38941   13.38200
       O   -12.10612  -12.60047   12.85536
      H1   -11.81319  -12.92375   12.02250
       H   -13.71710  -14.82704   11.15680
       O   -13.32438  -14.36020   10.37205
      H1   -13.93996  -14.65740    9.67587
       H   -12.20066  -15.86061   14.23195
       O   -11.61718  -15.32583   13.73417
      H1   -10.69943  -15.33529   14.14269
       H   -16.97387  -16.99005   15.83868
       O   -17.58014  -16.71292   15.11148
      H1   -18.34383  -17.30488   15.31748
       H   -10.53414  -11.81182   17.69089
       O   -10.22696  -12.60253   17.32538
      H1    -9.27559  -12.53847   17.53456
       H    -8.67844  -13.79475   19.79152
       O    -8.00749  -13.48666   19.11883
      H1    -7.19184  -14.03167   19.25882
       H   -13.47003   -5.50689   13.92185
       O   -14.38651   -5.12125   13.86207
      H1   -14.69442   -5.14117   14.75839
       H   -13.10333   -9.13249   12.27196
       O   -12.67663   -8.99980   13.13434
      H1   -13.17697   -9.71133   13.59924
       H   -19.17839  -14.16955   17.50012
       O   -18.95520  -14.36970   18.41994
      H1   -19.28673  -13.63480   18.97682
       H   -14.85441  -16.89043   17.69342
       O   -15.43861  -17.42783   17.13843
      H1   -14.91591  -18.23430   16.87668
       H   -16.38605  -12.38975   16.54513
       O   -16.62080  -11.50646   16.29001
      H1   -15.80198  -10.96056   16.53813
       H    -8.77433  -15.37379   16.33811
       O    -9.39716  -15.77152   16.95181
      H1    -9.50044  -16.68375   16.69777
       H   -15.32296  -14.24365   12.99572
       O   -14.93873  -13.34692   12.84559
      H1   -14.25154  -13.49841   12.18996
       H   -10.29683  -11.61264   13.62633
       O    -9.34512  -11.57681   13.70300
      H1    -9.15810  -12.12895   12.94319
       H   -16.76756   -6.38635   18.69875
       O   -16.98747   -5.95418   17.86131
      H1   -17.46898   -5.21774   18.28395
       H   -17.71967  -15.58021   13.43054
       O   -17.84971  -15.11543   12.58362
      H1   -18.39953  -15.80645   12.07620
       H    -9.16872  -13.34374    9.78310
       O    -9.26722  -14.09591   10.37392
      H1    -8.33020  -14.29327   10.54021
       H   -16.70293  -12.44100   13.37401
       O   -17.16603  -11.61203   13.07965
      H1   -17.30078  -11.11068   13.88143
       H    -6.74932  -16.97984   13.58439
       O    -6.98888  -16.60469   14.43509
      H1    -6.74380  -17.33986   15.03605
       H   -13.24636  -11.22822   19.07275
       O   -13.83404  -12.00863   19.07142
      H1   -14.59694  -11.50508   19.46304
       H    -9.87315   -9.63829   18.23964
       O   -10.76017   -9.90734   17.90177
      H1   -11.11521  -10.23934   18.74591
       H    -6.36963  -15.81738   16.04714
       O    -5.83769  -15.46623   16.81375
      H1    -6.43370  -15.51337   17.49524
       H   -17.25714   -6.83580   15.91127
       O   -16.68455   -7.55296   15.62656
      H1   -16.63969   -7.40280   14.62787
       H   -16.61277   -7.25307   10.07718
       O   -17.07902   -8.06046   10.09902
      H1   -17.70265   -8.04762    9.37669

