180
frame 6 | Written by MDAnalysis XYZWriter (release 2.4.3)
       H    -2.98500   15.25181    7.26943
       O    -3.13641   15.08250    6.33825
      H1    -2.13891   15.14667    6.07759
       H     0.22288   15.92804   16.37282
       O     0.39044   15.16229   17.00569
      H1    -0.46986   14.99241   17.39226
       H    -0.78915   11.35286   11.07333
       O    -0.30391   10.95555   10.34720
      H1    -0.24867   10.04179   10.67780
       H    -8.67895   15.48311   14.21088
       O    -9.29267   16.19069   14.48175
      H1    -9.51138   16.57566   13.61941
       H    -2.85685   12.14284   11.61377
       O    -2.17273   11.85209   12.18332
      H1    -1.85952   12.64583   12.58850
       H    -6.97609   15.09601    3.53427
       O    -6.27524   15.35621    4.18026
      H1    -6.33859   16.28024    4.07402
       H    -4.34349   17.36785   10.04563
       O    -4.75294   16.98771   10.84806
      H1    -4.02699   16.75389   11.35453
       H    -1.86457   11.47932    7.90133
       O    -2.38663   11.46961    8.68193
      H1    -1.73111   11.10375    9.31858
       H    -4.20618   13.50750    6.36323
       O    -4.31089   12.60472    6.05555
      H1    -4.67835   12.19764    6.84931
       H    -6.69538   17.01194    7.09999
       O    -5.87217   16.53586    7.03608
      H1    -5.78559   16.57175    6.04603
       H    -4.33832   14.95416   13.48381
       O    -3.99198   14.49054   12.69810
      H1    -3.09167   14.73757   12.84741
       H    -1.47066   17.01374   14.54993
       O    -0.61426   16.58995   14.77887
      H1    -0.74464   15.65099   14.60467
       H    -9.30950   11.47060    9.02994
       O    -8.85394   10.72047    9.43064
      H1    -9.61009   10.02332    9.50211
       H   -12.89999   15.53985   10.13239
       O   -11.95460   15.32714   10.09253
      H1   -11.96772   14.35108   10.29329
       H   -10.37723   12.83501    9.38187
       O   -10.25314   12.84096    8.39856
      H1   -11.14830   12.69911    8.07606
       H    -8.81613   12.22519   12.44305
       O    -9.60343   12.77030   12.75842
      H1    -9.62255   12.38268   13.62085
       H     1.36413   17.24257   14.27605
       O     2.22629   17.12250   13.90732
      H1     2.11468   16.16062   13.77474
       H    -6.55318   15.05312   10.46332
       O    -7.23516   14.44141   10.13731
      H1    -7.28699   14.82799    9.26237
       H    -6.71298   15.93776   18.03075
       O    -7.00190   15.40868   17.29563
      H1    -6.68914   15.85248   16.50691
       H    -7.59135   14.80739   13.11270
       O    -7.62616   14.14103   13.79790
      H1    -8.44802   13.57843   13.51767
       H   -11.01045   16.28301   11.44222
       O   -10.75646   17.02810   12.02181
      H1   -11.46505   17.02210   12.70365
       H    -0.77569   15.97340    4.70617
       O    -0.50091   15.36625    5.43655
      H1    -0.27190   14.59377    4.94422
       H   -10.70250   15.79614    8.53611
       O    -9.99942   15.54394    7.94182
      H1   -10.05324   14.59357    8.06692
       H    -2.36236   14.36866   15.03160
       O    -1.73155   13.85063   14.50149
      H1    -2.18259   12.95972   14.50014
       H    -1.34640   17.45471   11.79028
       O    -2.08769   17.00370   12.19648
      H1    -2.27511   17.62980   12.89912
       H    -7.73458   11.31837   10.99663
       O    -7.40837   11.61602   11.84275
      H1    -7.11133   12.52953   11.70369
       H    -3.19461   16.25957    5.13866
       O    -2.95460   16.90287    4.51980
      H1    -3.48918   16.93695    3.78701
       H    -4.43721   14.92734   15.78283
       O    -3.69818   15.44741   15.35330
      H1    -3.63220   16.26779   15.85415
       H     1.80349   14.28502   11.31584
       O     1.72794   15.12061   11.84649
      H1     0.82077   14.97589   12.07889
       H    -6.61892   12.27388    8.18306
       O    -6.02821   11.50995    8.36680
      H1    -5.68373   11.74459    9.21820
       H    -5.80532   10.82650   12.20097
       O    -5.06844   10.30687   12.57579
      H1    -4.23251   10.80039   12.48351
       H    -3.84956   13.18183    9.86593
       O    -4.48375   12.78128   10.45945
      H1    -4.45898   13.22443   11.30668
       H    -5.88344   12.46758   15.18199
       O    -5.57142   11.55806   14.95893
      H1    -5.72243   11.53234   13.97838
       H    -7.18424   17.25049   12.72710
       O    -7.29720   16.42995   12.26947
      H1    -7.56647   16.71104   11.41105
       H    -1.95990   13.38481    8.90108
       O    -1.96085   14.28875    9.18542
      H1    -1.25177   14.81402    8.76177
       H    -4.60026   17.72370    7.66657
       O    -3.93787   18.05751    8.26482
      H1    -3.92445   18.97664    7.98371
       H    -9.00306   17.15319    7.75612
       O    -8.37169   17.51627    7.12594
      H1    -8.50778   18.43559    7.39944
       H    -5.29342   12.50215    4.68670
       O    -6.11590   12.22550    4.05448
      H1    -6.83093   12.82170    4.37290
       H     2.63835   12.28838   10.72889
       O     1.90423   12.80108   10.37201
      H1     1.23993   12.09154   10.45390
       H    -5.70917   13.92133   17.29478
       O    -5.05608   13.46797   16.74003
      H1    -4.51072   12.94891   17.31814
       H     1.03269   17.87266   10.17722
       O     0.62169   17.17670   10.69006
      H1     1.31012   16.56223   10.93176
       H    -1.17436   14.49821   10.85990
       O    -0.90254   14.53492   11.79895
      H1    -1.24813   15.36902   12.11779
       H     0.18805   16.24560    8.94024
       O    -0.23966   16.07840    8.12313
      H1     0.41116   15.69562    7.58947
       H    -7.18661   14.21549    6.49095
       O    -7.73415   13.54354    6.13825
      H1    -8.39049   14.03313    5.62903
       H    -6.94281   19.74204   16.88189
       O    -6.09948   19.77033   16.41149
      H1    -5.55514   19.01645   16.68435
       H   -10.07957   15.49862    5.85707
       O    -9.69004   15.34352    4.99822
      H1   -10.55228   15.34713    4.52641
       H     1.98063   17.29947    6.08548
       O     2.82261   16.99646    5.79970
      H1     3.26173   17.71161    5.29224
       H     2.42323   19.38105    8.03631
       O     1.53212   19.12805    8.39339
      H1     1.02729   19.78789    7.87893
       H    -6.60899   18.77375   14.68542
       O    -7.26398   18.46015   14.04945
      H1    -7.82892   17.91883   14.61369
       H    -2.09958   18.06667    7.12113
       O    -1.94326   18.53744    6.27060
      H1    -2.51974   18.02189    5.69806
       H    -5.28269   17.27513    1.41061
       O    -4.52003   16.98963    1.91229
      H1    -4.32721   16.22392    1.24176
       H    -1.40743   19.25169   15.21545
       O    -2.16156   18.77944   14.82299
      H1    -2.67650   19.51802   14.46656
       H     0.74809   18.27827    4.17534
       O     0.53523   18.86884    4.87860
      H1    -0.11813   18.47232    5.41202
       H    -3.79740   11.22165   14.86794
       O    -2.81560   11.23063   14.89966
      H1    -2.59250   10.87340   14.06668
       H    -9.69040   18.46668    5.16882
       O    -9.22912   18.23914    4.31449
      H1    -9.17661   17.25451    4.42559
       H    -7.22142   18.96211   11.95211
       O    -6.72306   19.03583   11.10977
      H1    -6.02797   18.34598   11.23742
       H    -2.84272   11.90170    4.96919
       O    -2.37458   11.36437    4.33780
      H1    -2.59593   10.51575    4.81699
       H    -3.92326   17.43617   17.70531
       O    -4.16449   17.82732   16.83462
      H1    -3.20821   18.01199   16.52605
       H    -0.71992   16.92106    2.08620
       O    -0.78255   16.54671    2.93982
      H1    -1.76776   16.64944    3.15406
       H    -6.23481   18.50347    3.25361
       O    -6.44416   18.20132    4.17791
      H1    -7.42442   18.32303    4.28620

