180
frame 8 | Written by MDAnalysis XYZWriter (release 2.4.3)
       H    -0.86065    3.25364   14.24659
       O    -1.65798    3.53606   14.78015
      H1    -2.03115    4.21999   14.20982
       H    -6.33274    3.85651   10.49448
       O    -6.26090    3.92300   11.48390
      H1    -7.11495    3.52548   11.72929
       H    -5.61129    5.60550   11.25738
       O    -5.06140    6.39072   11.09688
      H1    -5.56287    7.05019   11.63456
       H    -5.92057    5.53671   18.09767
       O    -6.26195    5.16598   18.91133
      H1    -5.58502    5.39147   19.65712
       H    -3.60122    4.60028   19.31531
       O    -3.54500    4.62278   18.34774
      H1    -2.58548    4.53649   18.14575
       H   -10.85818    7.28662   14.53074
       O   -10.41711    7.75088   13.75882
      H1    -9.50366    7.75859   14.11093
       H    -3.87760   -0.89239    9.42638
       O    -4.22568   -1.55205    8.85598
      H1    -4.40955   -1.08447    8.01395
       H    -0.70309    3.31673   18.06441
       O    -0.91826    4.13976   17.54501
      H1    -1.27983    3.76610   16.72898
       H   -12.70103   -1.45484   16.57117
       O   -12.54982   -0.54997   16.28984
      H1   -11.91997   -0.73218   15.52754
       H    -0.93140    3.51599   10.06976
       O    -0.86876    4.10714   10.83931
      H1    -1.67047    4.63730   10.70319
       H    -2.57001    1.14281   15.81961
       O    -1.74862    0.68618   15.97883
      H1    -1.65193    0.99569   16.93071
       H    -4.89249    5.35044    9.13615
       O    -4.82325    4.67171    8.42953
      H1    -4.41328    3.91452    8.91332
       H    -5.78071   -4.29245   16.55788
       O    -5.53542   -4.63113   15.68071
      H1    -5.93918   -3.96321   15.08567
       H   -12.57762    3.80811   15.15094
       O   -11.86992    4.17261   14.58120
      H1   -11.67367    4.99256   15.08816
       H   -10.39847    5.83082   18.15956
       O   -11.18087    5.35317   18.44284
      H1   -10.95327    4.41096   18.58417
       H    -9.74866    1.48743   16.44788
       O    -9.90127    2.45325   16.50988
      H1    -9.37570    2.90232   17.22506
       H    -6.06372   -2.05841   10.08131
       O    -6.87351   -2.54738   10.17674
      H1    -7.39227   -1.89981   10.70190
       H   -10.33276   -0.90885   10.50184
       O   -10.84396   -0.89722    9.69357
      H1   -11.63243   -0.48292   10.08041
       H    -1.86017    1.28076   12.83616
       O    -2.65136    1.14318   12.24150
      H1    -3.43547    1.12104   12.86102
       H    -3.21000    2.37097   10.80268
       O    -3.95329    2.87388   10.37115
      H1    -4.41474    3.14643   11.19686
       H    -9.05796    5.10474    9.04475
       O    -8.97943    5.97206    9.57594
      H1    -9.11343    5.65779   10.52940
       H    -9.75733   -2.95670   19.37438
       O   -10.33503   -2.43117   18.79235
      H1   -11.00324   -3.02745   18.44941
       H    -9.22896    3.24149   15.10210
       O    -8.40307    3.68566   14.73536
      H1    -7.81589    2.89762   14.82404
       H   -11.17152    1.79876   11.58775
       O   -10.56020    1.76616   10.84086
      H1   -11.14186    2.17970   10.11441
       H     0.18161    0.61342   16.10797
       O     0.98252    0.76988   16.61899
      H1     1.47015    1.49876   16.21291
       H    -7.38818    7.72484   14.12554
       O    -7.82357    7.66496   15.00250
      H1    -7.61308    6.80123   15.38513
       H   -11.78621   -0.31082   18.44376
       O   -12.46288   -0.17990   19.09560
      H1   -13.13842    0.29274   18.60953
       H    -2.17227   -1.22040   16.55766
       O    -2.84483   -1.86287   16.78631
      H1    -2.42573   -2.77250   16.79143
       H   -11.21378   -0.08352   13.49069
       O   -11.06186   -0.94726   13.90152
      H1   -10.16071   -1.16014   13.70127
       H    -9.10199   -3.78500   13.14250
       O    -9.09693   -2.86633   13.57283
      H1    -8.36388   -2.97616   14.20664
       H    -9.84303    6.04258   12.92026
       O    -9.33137    5.69165   12.18794
      H1    -8.69296    5.17319   12.71347
       H    -5.53759   -2.91650   18.65102
       O    -5.73971   -2.51424   17.81690
      H1    -4.91974   -2.28816   17.49134
       H    -3.12978    6.71938   11.50535
       O    -2.41033    6.54303   12.09511
      H1    -1.71582    6.49327   11.44936
       H    -8.49734    2.59113   13.01601
       O    -8.31278    2.29480   12.14791
      H1    -9.26573    2.19453   11.81652
       H    -6.72147   -1.81271   14.80271
       O    -7.24382   -1.78183   15.63514
      H1    -6.56153   -2.18226   16.19365
       H    -9.72595   -1.23707   17.60353
       O    -9.29225   -0.58590   17.03790
      H1    -8.64132   -1.17624   16.59273
       H    -9.13665    1.16940    9.19548
       O    -8.30721    1.39152    8.72278
      H1    -7.67768    1.24496    9.43499
       H    -0.07334    0.99836   18.20441
       O    -0.66658    1.55975   18.78315
      H1    -1.27415    0.84359   19.14732
       H    -2.69897   -1.84195   13.85258
       O    -3.60843   -1.77774   14.10870
      H1    -3.45150   -1.60258   15.06199
       H    -5.91472    5.42444   15.09777
       O    -6.61962    5.35987   15.78067
      H1    -7.21997    4.73295   15.36404
       H    -6.06792    1.40138   12.90764
       O    -5.53550    0.78689   12.30087
      H1    -6.04885    0.94178   11.48937
       H    -8.72309    3.68011   19.58514
       O    -8.45646    3.54819   18.66051
      H1    -7.73612    4.18706   18.53661
       H    -4.02686    5.69085   14.61259
       O    -4.42524    5.29913   13.81193
      H1    -3.98913    5.82815   13.13300
       H    -4.14186    2.96069   17.09048
       O    -4.13447    2.57697   16.20782
      H1    -3.50347    3.12852   15.66058
       H     1.19425    2.70565   12.92228
       O     0.22386    2.42794   13.04936
      H1    -0.16831    2.87414   12.26519
       H    -3.41715    5.93982   17.02702
       O    -3.22771    6.46949   16.21449
      H1    -3.58290    7.41714   16.43439
       H    -7.90523   -0.19651   18.36573
       O    -7.55621   -0.40293   19.24613
      H1    -6.74140   -0.81233   18.97537
       H    -8.56703   -1.68670   12.56273
       O    -8.49819   -1.02627   11.83821
      H1    -7.85245   -0.35509   12.13790
       H    -6.82398    1.15346   18.54491
       O    -6.19959    1.77577   18.12173
      H1    -6.82944    2.51440   18.07737
       H    -7.13298    8.48972   11.81898
       O    -7.34266    7.69240   12.31696
      H1    -7.98656    7.19929   11.78886
       H   -12.94322    1.78909   12.70916
       O   -12.03639    1.70568   13.05642
      H1   -11.75589    2.63756   13.30939
       H    -1.78591   -0.36437   11.35306
       O    -1.02256   -0.74316   10.86696
      H1    -0.31018   -0.13632   11.18698
       H    -5.06982   -1.95403   13.44969
       O    -6.01083   -2.25488   13.19926
      H1    -6.04913   -2.00740   12.29841
       H    -5.56142    1.88541   15.36210
       O    -6.52749    1.67498   14.97171
      H1    -6.68214    0.98496   15.66311
       H   -12.02826    2.28104   18.64284
       O   -11.85436    2.93316   19.43251
      H1   -11.92712    2.24750   20.13641
       H    -4.93286    1.51409    9.57169
       O    -5.57507    0.89449    9.28996
      H1    -5.90731    1.22274    8.42423
       H   -12.24178   -1.99425   13.12207
       O   -13.08797   -2.25179   12.65402
      H1   -13.13198   -3.17700   12.94128
       H    -8.46568    6.49134   17.25047
       O    -9.18332    6.97419   17.58958
      H1    -9.16665    7.82418   17.18708
       H   -12.70082    1.06896   16.60514
       O   -12.58113    2.01783   16.85913
      H1   -11.78174    2.22919   16.40616
       H    -3.00175   -5.67334   15.53502
       O    -2.60501   -4.80621   15.40037
      H1    -3.30848   -4.31110   15.00143

