180
frame 4 | Written by MDAnalysis XYZWriter (release 2.4.3)
       H    -0.52526   11.07837    8.37140
       O    -1.39022   11.29975    8.57147
      H1    -1.34485   11.43237    9.55387
       H    -6.39181    4.43713   10.48580
       O    -5.40730    4.59529   10.60955
      H1    -5.05904    3.84352   11.06181
       H    -5.14764   12.60283   15.02320
       O    -5.22347   12.93749   15.92034
      H1    -5.60484   13.84225   16.00492
       H    -7.23431   11.00942   14.49633
       O    -7.67279   11.66876   15.07478
      H1    -7.02185   12.22309   15.53734
       H    -9.22940    8.97494    7.26130
       O    -8.37643    8.62618    7.36424
      H1    -8.50898    7.98235    8.09070
       H     0.11205    5.23647    5.79968
       O    -0.03032    5.31933    6.77809
      H1     0.41957    6.13227    7.12543
       H    -0.42446    4.38667   13.18589
       O    -0.76046    4.46420   14.07028
      H1    -0.44168    3.78534   14.67906
       H   -10.27372    6.28132    5.20029
       O    -9.58102    6.23122    4.55048
      H1    -8.74620    6.49504    5.01216
       H    -6.39738   12.27322    7.46783
       O    -5.91084   12.93655    7.96531
      H1    -6.45065   13.73342    7.90176
       H    -2.14852    4.57473   10.03147
       O    -2.69930    3.94013    9.45900
      H1    -3.59274    3.94647    9.80549
       H    -5.85544    9.28203   10.60685
       O    -6.32177   10.02394   10.91079
      H1    -6.39289   10.01868   11.87899
       H    -3.66259    7.49977    1.22951
       O    -3.79895    6.58321    1.47140
      H1    -3.25761    6.40275    2.27542
       H    -6.46996   14.79667   12.78397
       O    -5.81337   14.81999   12.11336
      H1    -5.81266   14.00493   11.55029
       H     0.66069    9.36707    5.75779
       O     0.72935    9.84856    6.64708
      H1     1.53014   10.39583    6.65432
       H     0.02122    6.02362    9.20726
       O    -0.62855    5.94480    9.98083
      H1    -0.52176    6.73577   10.56654
       H    -5.17052    6.81692   10.63575
       O    -5.65390    7.50124   10.16805
      H1    -4.91038    7.82938    9.53878
       H    -4.25639    9.98538    1.37903
       O    -3.89012   10.53376    2.07243
      H1    -4.52038   11.16337    2.37407
       H    -3.28234   11.64402   14.19226
       O    -3.97845   11.46441   13.59055
      H1    -3.61295   11.43919   12.70463
       H     3.58272   11.45290    7.39570
       O     2.72390   11.77570    7.20802
      H1     2.19343   11.66129    8.01321
       H    -5.63196    8.25335    4.00162
       O    -6.07645    8.56975    3.22984
      H1    -5.50621    9.33173    2.96736
       H    -0.62063   13.12034    8.52429
       O    -0.19902   13.98691    8.77862
      H1     0.04799   14.38573    7.91395
       H   -10.01286   11.73250   11.37755
       O   -10.40954   12.35919   11.99233
      H1   -10.92328   12.79071   11.34654
       H    -1.89257    9.84317   12.57141
       O    -2.28228    8.99438   12.81675
      H1    -2.21443    8.99979   13.78639
       H    -8.21222    5.22259    9.41763
       O    -8.04451    4.27551    9.44411
      H1    -7.43283    4.11757    8.71552
       H    -1.72248    5.73818    3.93671
       O    -2.10279    6.60370    3.73003
      H1    -2.73187    6.86019    4.33263
       H    -3.71085   11.72189   10.73883
       O    -3.04766   11.11817   11.15172
      H1    -3.37520   10.18483   11.16288
       H    -1.62571    6.77182    8.73259
       O    -2.16838    6.99770    7.91562
      H1    -1.71933    6.61080    7.16331
       H    -7.27171    5.93124    5.87040
       O    -7.21551    6.83341    5.61001
      H1    -7.55058    7.28745    6.38296
       H    -5.49044   12.09256    3.87933
       O    -5.67303   12.52745    3.00497
      H1    -6.60273   12.33471    2.79175
       H    -7.28281    7.57688   14.82886
       O    -6.52103    7.26208   14.31875
      H1    -5.91190    7.32737   15.10661
       H    -5.18104    5.23496    8.06312
       O    -5.88932    4.95114    7.45482
      H1    -5.41702    4.59834    6.72165
       H    -1.36761    8.21898    2.93351
       O    -1.37055    8.70013    2.06989
      H1    -2.21768    9.19148    2.13701
       H    -1.46870   11.43249    3.44919
       O    -1.14352   11.80728    2.58169
      H1    -1.06153   11.09782    1.94377
       H     0.45250   10.04475   12.43058
       O    -0.16597   10.74833   12.32953
      H1     0.05417   11.35439   13.00974
       H     0.54275    6.10449   14.36309
       O     1.07077    6.90992   13.97675
      H1     1.06448    7.58354   14.64171
       H    -0.97473   13.53380   11.90518
       O    -0.12211   13.67644   11.45149
      H1    -0.23709   13.67296   10.47433
       H    -3.43753    9.94457    9.12812
       O    -3.70754    9.05217    8.95722
      H1    -3.02322    8.59883    8.51075
       H    -6.41524    9.16161   14.04087
       O    -6.35776   10.04863   13.62602
      H1    -5.43454   10.38864   13.73430
       H    -2.44071   10.35329   15.72934
       O    -2.49807    9.38212   15.73211
      H1    -1.79944    9.10061   16.29782
       H    -6.88487    5.42051   13.48655
       O    -7.17669    4.62628   13.04421
      H1    -6.57187    4.49247   12.30521
       H    -3.91484   15.37385   11.16261
       O    -3.21889   15.45031   10.45069
      H1    -3.77576   15.71870    9.68000
       H    -1.16476    2.71396    8.46874
       O    -0.65116    2.39531    7.68898
      H1    -0.24503    3.06970    7.23098
       H    -9.08505    6.99380   10.28870
       O    -8.50014    6.84409    9.53023
      H1    -7.59023    7.07835    9.81844
       H     2.97350    7.25884   11.18685
       O     3.18192    8.15745   10.87871
      H1     4.02905    8.25285   11.33917
       H   -11.56921   10.17828   11.79776
       O   -11.04605    9.36545   11.76163
      H1   -10.20761    9.70070   11.42982
       H    -1.45931   10.39108    5.97802
       O    -1.92331   10.71441    5.17836
      H1    -2.79622   11.05282    5.48161
       H     2.00769    7.44755    8.07991
       O     1.04271    7.44235    8.01720
      H1     0.76604    8.32509    7.72347
       H     0.72663    8.80251    3.36905
       O     0.49835    8.52076    4.26132
      H1     1.17692    7.96652    4.63674
       H    -5.48317   12.85446    9.65240
       O    -5.38821   12.64927   10.56732
      H1    -5.69047   11.71018   10.55639
       H    -9.94231   12.51681    8.27182
       O    -9.73279   12.05779    7.43894
      H1   -10.17978   11.19278    7.41310
       H    -4.84699    5.37317    4.65643
       O    -4.11593    4.97507    5.13529
      H1    -4.00490    4.10703    4.75131
       H     0.32379    7.66989   12.35591
       O    -0.01296    8.11111   11.56413
      H1    -0.84713    8.51016   11.82679
       H    -8.21321   10.45589   10.43452
       O    -9.03690   10.84140   10.01030
      H1    -8.74556   11.16689    9.16713
       H    -7.15009    9.98000    6.53401
       O    -7.19046   10.88049    6.21419
      H1    -8.11054   11.07064    6.28679
       H    -5.25009    6.08225    2.32073
       O    -5.96183    5.72060    2.87194
      H1    -6.43083    6.46289    3.17845
       H     0.18767    4.80015   11.02492
       O     0.54829    4.11465   11.59943
      H1     0.37904    3.22324   11.29687
       H     1.72370   12.62513    9.90630
       O     1.92815   11.70773    9.92003
      H1     1.35825   11.39387   10.65586
       H    -5.64029    8.98210   16.95190
       O    -5.16957    8.35108   16.44767
      H1    -4.35233    8.77783   16.13022
       H    -4.26859    8.31932    6.41333
       O    -4.05549    8.49336    5.49202
      H1    -3.35605    9.19567    5.38810
       H    -4.57543   12.57744    5.91861
       O    -4.49611   11.79277    5.41919
      H1    -5.34444   11.34443    5.60510

