180
frame 4 | Written by MDAnalysis XYZWriter (release 2.4.3)
       H    12.20146   -6.70154    2.27140
       O    12.80083   -7.07562    2.87432
      H1    13.69355   -6.79133    2.61096
       H    16.11884   -5.69846   -4.24936
       O    16.58669   -4.97083   -3.92067
      H1    17.23047   -5.32150   -3.27968
       H    16.70555  -13.92536    7.32899
       O    16.21047  -13.11060    7.24038
      H1    16.87789  -12.43933    7.10857
       H    11.79835  -13.96517    1.21260
       O    12.74757  -13.78499    1.33528
      H1    12.75451  -12.95347    1.82950
       H    17.39976  -13.06257   -1.24723
       O    18.06894  -12.35614   -1.24685
      H1    17.81348  -11.82324   -1.97718
       H    15.51334    0.00721    4.32930
       O    15.06628   -0.84007    4.25295
      H1    15.28084   -1.00597    3.35817
       H    12.11519  -12.75971   -0.67329
       O    12.33114  -11.85973   -1.02284
      H1    11.45460  -11.55124   -1.13266
       H    13.01352   -5.73386   -1.50495
       O    13.14581   -4.78683   -1.65984
      H1    14.08152   -4.64539   -1.61262
       H    13.73448   -8.45594   -3.48310
       O    14.32122   -8.71705   -2.75246
      H1    13.93763   -9.56119   -2.49845
       H    15.87177   -0.13875   -1.81450
       O    15.39902   -0.74107   -2.36094
      H1    15.18179   -0.26922   -3.16152
       H    11.61121   -7.33805   -0.17659
       O    12.00018   -7.35791   -1.03410
      H1    12.77868   -7.84265   -0.82347
       H    11.92668   -4.46891   -0.28773
       O    11.41131   -4.14129    0.43981
      H1    11.04042   -3.28948    0.11883
       H    14.48100   -2.54344    1.94869
       O    15.00937   -1.72161    1.78873
      H1    14.60463   -1.47695    0.93209
       H    18.59736   -4.01654   -1.10054
       O    18.63543   -3.27743   -0.47605
      H1    18.29886   -2.59175   -1.05663
       H    18.05774   -0.05043    6.27050
       O    18.59477    0.73730    5.97504
      H1    19.26574    0.70394    6.69286
       H    13.09461   -4.93169    4.15154
       O    12.42405   -5.33080    4.69692
      H1    12.37030   -6.19780    4.26594
       H    17.87411   -8.05313    0.40970
       O    17.25022   -8.63068    0.04155
      H1    17.63351   -8.73962   -0.85514
       H    19.01509  -10.13954    3.66377
       O    18.78039   -9.99199    2.76319
      H1    18.38044   -9.08420    2.74578
       H    13.39323   -2.27196   -1.16514
       O    13.72799   -1.56798   -0.58570
      H1    14.26956   -1.08795   -1.21685
       H    16.46473  -14.66588    0.74298
       O    17.05698  -14.98562    1.44025
      H1    16.58488  -15.70671    1.91336
       H    16.21797   -2.79718    1.86578
       O    16.90282   -3.57475    1.72994
      H1    17.26158   -3.24000    0.84003
       H    12.92125  -11.38732    8.25519
       O    13.78924  -11.80604    8.23005
      H1    14.40456  -11.03471    8.13452
       H    14.22141   -3.93728    8.74673
       O    14.33330   -4.54762    9.46512
      H1    14.12842   -4.03889   10.27520
       H    18.65905   -5.68329    1.31494
       O    19.06879   -6.16727    0.57367
      H1    19.82927   -6.50554    1.00688
       H    15.14821   -8.83663   -0.53947
       O    14.40829   -8.82098    0.04893
      H1    14.91077   -9.13128    0.83068
       H    13.87844  -12.76466   -3.82114
       O    13.05650  -12.33665   -3.60728
      H1    13.17478  -12.21140   -2.62070
       H     9.40770   -7.81278    5.77854
       O     9.81060   -8.70173    5.71514
      H1    10.78142   -8.57731    5.58508
       H    19.20427  -10.55590    8.35793
       O    18.54589  -10.59588    7.70649
      H1    17.97571   -9.82246    7.92192
       H    11.94978  -10.57594    1.90564
       O    12.77788  -11.03434    2.05367
      H1    13.24563  -11.06791    1.18792
       H    16.44665   -7.96331    8.91460
       O    17.39571   -8.11533    8.64540
      H1    17.33101   -7.71750    7.77789
       H    16.47104   -4.37717    8.72119
       O    17.20243   -3.91626    8.23800
      H1    17.93290   -4.60310    8.21326
       H    17.15517   -8.08514    3.47384
       O    17.59308   -7.44312    2.93300
      H1    16.80317   -6.94982    2.58016
       H    18.67419   -2.97554    2.36115
       O    19.56188   -2.54097    2.25730
      H1    19.30503   -1.71775    2.68020
       H    12.34991   -8.95750    6.83105
       O    12.48412   -9.10730    5.88230
      H1    13.17728   -8.44001    5.76412
       H    10.54876   -6.29286   -4.25857
       O    11.35634   -6.79375   -4.01413
      H1    11.39894   -6.67152   -3.06525
       H    14.88254  -13.69785    0.11598
       O    15.67910  -13.55047   -0.30979
      H1    16.08312  -12.98496    0.35169
       H    14.34510   -7.43690    8.99229
       O    15.01668   -7.45674    9.72711
      H1    14.97350   -6.56253   10.05661
       H    16.15132   -4.00394   -1.78650
       O    15.66800   -4.18974   -0.99408
      H1    15.89739   -3.38032   -0.53426
       H    19.58417   -9.07044   -2.66224
       O    19.31953   -8.44273   -1.95216
      H1    19.17721   -7.58699   -2.40821
       H    16.19687   -1.29414    5.57945
       O    16.60489   -1.46828    6.39094
      H1    16.33409   -0.76158    6.98822
       H    15.02071   -6.69198    0.86488
       O    15.11414   -6.01642    1.50456
      H1    15.59369   -5.37518    0.91293
       H    16.36911  -11.11866   -4.47828
       O    16.53404  -11.08172   -3.49393
      H1    16.19241  -10.18923   -3.29299
       H    17.56879   -5.83178   10.96718
       O    18.32562   -6.39038   10.70075
      H1    17.91598   -6.90770    9.97021
       H    12.17981   -6.75822    7.78948
       O    12.54628   -7.50699    8.27928
      H1    11.70911   -7.98016    8.42078
       H    17.10196   -1.16834   -2.60504
       O    17.99181   -1.41811   -2.43171
      H1    18.31287   -1.28224   -3.30349
       H    10.38972   -5.69366    1.23400
       O    10.52487   -6.66594    1.25060
      H1     9.82370   -7.02981    0.72282
       H    18.52650   -2.81853    8.74537
       O    19.36176   -2.44881    8.90941
      H1    19.48619   -2.57378    9.89199
       H    13.67750   -1.63703    4.87516
       O    13.00801   -2.22535    5.36363
      H1    13.39788   -2.27181    6.29786
       H    19.44701   -9.98845   -4.76549
       O    19.60881  -10.47710   -3.93649
      H1    18.74410  -10.95041   -3.87141
       H    10.71679   -4.30182    7.59724
       O    11.41266   -4.98014    7.50674
      H1    11.85702   -4.55260    6.68252
       H    14.52394  -10.23960    3.13128
       O    15.38944   -9.86736    2.89685
      H1    15.83978  -10.72309    2.71219
       H    18.82493  -11.32867    6.08047
       O    18.59308  -11.52114    5.13378
      H1    17.97346  -12.26143    5.01864
       H    12.89566   -0.07415    1.57989
       O    12.83924   -0.03156    2.51130
      H1    13.63714   -0.53008    2.64732
       H    16.34989   -9.58250    4.32017
       O    16.85620   -9.18781    5.06032
      H1    17.59339   -9.76436    5.21124
       H    14.00436   -4.66466    1.97155
       O    13.48980   -3.93177    2.36351
      H1    12.78005   -3.88364    1.75446
       H    17.04260  -12.62535    2.79692
       O    16.98606  -12.01954    2.04477
      H1    17.73456  -11.45492    2.21201
       H    17.42885  -14.63317    4.14987
       O    17.07118  -13.78285    4.33654
      H1    16.29891  -14.06075    4.82989
       H    15.61051   -9.79168    6.49415
       O    15.00419   -9.54183    7.18503
      H1    14.13807   -9.82683    6.81853
       H    11.19122   -4.20274    4.66730
       O    10.49583   -3.53670    4.63342
      H1    10.94067   -2.85197    4.19405
       H    14.95411   -2.07983    7.46613
       O    14.05367   -2.35534    7.74732
      H1    13.64215   -1.49670    7.83015

