180
frame 7 | Written by MDAnalysis XYZWriter (release 2.4.3)
       H   -17.80098   11.76456   -8.78236
       O   -18.45086   11.06579   -8.67447
      H1   -19.29956   11.46619   -8.73658
       H   -13.22249   19.21636  -17.76464
       O   -12.47193   18.90499  -18.26025
      H1   -11.79632   19.54218  -18.00127
       H   -17.12989   12.45754   -4.58648
       O   -18.01954   12.73737   -4.26132
      H1   -18.63277   11.94535   -4.19805
       H   -13.76127   12.43791   -9.93227
       O   -13.84223   13.15324   -9.25773
      H1   -14.73540   13.46699   -9.28381
       H   -14.38863   11.64673  -12.14339
       O   -14.51940   11.13558  -11.30259
      H1   -15.38547   10.82008  -11.26258
       H   -15.65583   13.62051  -12.76621
       O   -16.18749   14.14532  -12.14053
      H1   -15.55475   14.76912  -11.71453
       H   -19.68628   15.92427  -12.26542
       O   -19.56354   16.81226  -11.93655
      H1   -19.39533   16.58859  -11.01882
       H   -20.05935   15.59178  -17.97707
       O   -19.67836   14.75596  -18.31027
      H1   -18.70880   14.90033  -18.21931
       H   -17.01777   18.52455   -6.80012
       O   -16.36220   19.18446   -6.87733
      H1   -16.96473   19.96359   -6.92858
       H   -17.80695    6.57306  -17.04611
       O   -17.33554    5.80394  -17.36844
      H1   -16.46133    5.89588  -17.02115
       H   -14.50435    8.60492   -9.66622
       O   -13.78802    8.89866  -10.19628
      H1   -14.04497    9.78985  -10.53545
       H   -16.99888   15.69492  -13.28707
       O   -17.28748   15.75717  -14.18515
      H1   -17.94937   16.47422  -14.26342
       H   -16.21539   18.42217  -18.88669
       O   -15.60405   17.91357  -18.34900
      H1   -16.15068   17.27080  -17.82004
       H   -12.78408   11.20102   -5.43653
       O   -12.80491   10.60540   -6.17073
      H1   -13.61659   10.81860   -6.69663
       H   -10.54373    9.50284   -9.46800
       O   -10.87368    8.65782   -9.93404
      H1   -11.81086    8.91090  -10.14944
       H   -11.57368   15.88131  -13.78428
       O   -11.63086   14.95642  -13.58047
      H1   -10.95411   14.32283  -13.94928
       H   -16.37504   19.89563  -16.35476
       O   -16.19188   19.04967  -15.87570
      H1   -15.79494   18.59183  -16.62614
       H   -18.54020   19.83344  -11.58530
       O   -18.74294   19.38540  -12.47412
      H1   -19.22801   18.51751  -12.28704
       H   -17.97891   10.81964  -19.31994
       O   -18.16910   10.40085  -18.50482
      H1   -17.68253    9.59280  -18.58535
       H   -17.84497   10.50453  -13.73693
       O   -17.18234   10.01462  -13.22253
      H1   -17.22780   10.14017  -12.21087
       H   -16.50199    6.32987  -12.95462
       O   -15.94836    6.05318  -12.17769
      H1   -15.11457    6.62591  -12.29840
       H   -18.26438    9.28531   -5.25128
       O   -17.94662    9.85064   -4.53591
      H1   -18.16024    9.30736   -3.76990
       H   -14.93963    7.17932   -8.13104
       O   -15.69309    7.63928   -8.45206
      H1   -16.26715    6.94586   -8.85100
       H   -13.44419   13.76110  -13.06733
       O   -13.86422   12.96444  -13.37123
      H1   -13.88833   13.00429  -14.31878
       H   -10.98259    9.87674  -14.26854
       O   -11.33533   10.29599  -15.10113
      H1   -10.60609   10.16569  -15.71772
       H   -17.52108   13.50869   -9.57156
       O   -16.76652   13.25295   -9.03043
      H1   -16.86514   13.79115   -8.16474
       H   -13.31254   16.01906  -11.52855
       O   -14.04743   15.60635  -11.04135
      H1   -13.56755   15.03114  -10.47644
       H   -18.70125    7.80947   -7.21269
       O   -18.01728    7.76470   -6.54080
      H1   -17.19677    8.01787   -6.97961
       H   -12.00176   17.37484  -17.55609
       O   -11.65709   16.48922  -17.23587
      H1   -12.25583   15.77813  -17.54174
       H   -12.43401   13.50388  -17.30971
       O   -13.24539   13.90526  -17.70142
      H1   -13.19856   13.60463  -18.62656
       H   -17.74422    8.11200  -15.63668
       O   -17.49977    8.64355  -16.45509
      H1   -16.52136    8.85888  -16.30673
       H   -15.34974   18.69667  -12.51822
       O   -16.08503   18.06579  -12.40135
      H1   -16.88199   18.57556  -12.65630
       H   -10.26663   12.63335  -16.79512
       O   -10.65934   12.57974  -17.68024
      H1   -11.14232   11.76231  -17.73236
       H   -17.16801    6.20332  -11.00078
       O   -17.45542    6.27562  -10.02810
      H1   -18.43873    6.12298   -9.96756
       H   -13.38694   17.37278   -7.30896
       O   -12.71475   17.46856   -6.60608
      H1   -12.74677   16.58280   -6.17902
       H   -14.62840   10.26283  -15.73534
       O   -14.88363    9.41496  -15.34136
      H1   -15.61126    9.65606  -14.76496
       H   -18.64501   14.14912  -11.12038
       O   -18.89117   13.98137  -10.17954
      H1   -18.84581   14.84855   -9.78057
       H   -18.90594   17.18353   -5.50202
       O   -18.36509   17.07715   -6.29228
      H1   -17.80129   16.30227   -6.15002
       H   -18.00810   12.04442  -15.67524
       O   -17.29941   12.26955  -16.32584
      H1   -17.54529   11.79328  -17.15680
       H   -16.43511   18.10529  -10.68785
       O   -16.71190   18.21906   -9.76666
      H1   -17.28565   19.04293   -9.89290
       H   -18.94674   17.37611  -16.01243
       O   -18.50237   17.84803  -15.33836
      H1   -17.67586   18.20421  -15.68001
       H   -12.69905   13.85550   -7.56374
       O   -12.01278   14.28598   -6.97120
      H1   -11.52097   14.89967   -7.53017
       H   -18.05813   17.22804   -9.31497
       O   -18.87606   16.76188   -9.09268
      H1   -18.91550   16.81232   -8.12485
       H   -14.21833    4.84109  -17.53635
       O   -14.32290    5.77872  -17.24724
      H1   -13.78612    5.99675  -16.45508
       H   -15.00485   17.90670   -9.42451
       O   -14.15479   17.47408   -9.12611
      H1   -14.14169   16.76017   -9.75838
       H   -11.45194   17.22039  -15.47141
       O   -11.59277   17.80467  -14.70779
      H1   -12.55498   17.87401  -14.58099
       H   -15.56711   11.89603   -5.77670
       O   -15.65004   12.56909   -5.12435
      H1   -14.91568   13.19532   -5.27768
       H   -18.50249   14.35057  -13.60270
       O   -19.20260   14.07528  -13.01174
      H1   -19.55820   13.34988  -13.59053
       H   -14.28735   12.70982  -16.93254
       O   -14.61303   11.91703  -16.50989
      H1   -15.61900   12.02385  -16.57044
       H   -12.63600   10.14466  -18.79514
       O   -11.96405   10.12680  -18.06942
      H1   -12.48824   10.18885  -17.27625
       H   -17.37796   10.08727   -9.93435
       O   -16.88139    9.58082  -10.50520
      H1   -17.22556    8.68799  -10.33664
       H   -12.67920    7.37457  -14.84635
       O   -12.31081    6.55766  -15.30067
      H1   -11.66445    6.31562  -14.62910
       H   -11.56398   14.88946  -11.96433
       O   -11.42235   14.69706  -11.02969
      H1   -11.07353   15.50778  -10.67231
       H   -14.53716   16.49443  -15.09691
       O   -14.17146   17.29681  -14.73698
      H1   -14.98084   17.57051  -14.28077
       H   -13.90637    8.37021  -11.89436
       O   -14.04267    8.04522  -12.77809
      H1   -14.53012    8.69026  -13.28659
       H    -9.14694   12.80329  -14.29788
       O   -10.01864   12.73387  -14.70868
      H1   -10.42908   11.83951  -14.66628
       H   -18.75914    6.86796  -13.37054
       O   -18.13094    7.37892  -13.91222
      H1   -18.11776    8.26451  -13.57576
       H   -16.22621   15.14659  -17.29153
       O   -16.59923   15.93377  -16.88167
      H1   -16.71431   15.73186  -15.95428
       H   -15.34691   10.17788   -7.77536
       O   -15.04240   11.04228   -7.52785
      H1   -15.05057   11.64419   -8.31931
       H   -15.77067   15.05750   -6.48652
       O   -16.72684   14.80081   -6.58845
      H1   -16.87956   14.05958   -6.04534

