180
frame 101 | Written by MDAnalysis XYZWriter (release 2.4.3)
       H   -15.09954   -3.86528    4.44052
       O   -15.28176   -3.45012    5.29584
      H1   -15.47307   -2.51012    5.00455
       H   -18.22319    3.34724   11.34745
       O   -17.65458    2.80376   10.70601
      H1   -18.16166    2.77266    9.86788
       H   -19.14034    3.48636    8.31135
       O   -18.45326    2.81002    8.20797
      H1   -19.04264    2.07417    7.93240
       H   -15.41092   -5.54724   18.35424
       O   -16.01970   -5.40598   17.59522
      H1   -16.64907   -4.82690   17.97167
       H   -16.44570   -5.63094    8.11432
       O   -16.48447   -5.20823    8.98675
      H1   -16.95120   -4.39872    8.87018
       H   -12.72399    4.68779    9.78171
       O   -12.95344    4.03247   10.44424
      H1   -12.97371    3.18287   10.04375
       H   -15.40388   -2.51003   11.84999
       O   -15.69007   -1.81412   11.22274
      H1   -16.45373   -2.17093   10.74916
       H   -18.39560   -2.03008   10.81192
       O   -18.26077   -2.92912   10.49693
      H1   -18.96946   -3.34420   11.08684
       H    -9.63906   -3.48493    7.04831
       O   -10.52282   -3.19802    7.19194
      H1   -10.92648   -2.88711    6.33061
       H   -16.87506   -0.56413    8.16237
       O   -16.96003    0.34713    8.53420
      H1   -17.54202    0.85440    7.97446
       H   -17.81082   -2.46952    7.46233
       O   -16.89620   -2.33889    7.76419
      H1   -16.40297   -2.77615    7.01770
       H   -14.87900    0.53007   17.22423
       O   -14.20412    0.17199   17.82413
      H1   -13.69715   -0.42320   17.24881
       H   -13.01865   -9.00039   11.85909
       O   -12.98588   -8.47725   12.73620
      H1   -12.55834   -7.62195   12.52029
       H   -19.22731   -4.55950    4.87454
       O   -18.28894   -4.36173    4.68956
      H1   -18.10770   -5.05310    4.02051
       H   -10.44035    2.97047   13.31146
       O    -9.64108    2.43388   13.34581
      H1    -9.47216    2.33903   14.27760
       H   -18.73848   -1.99546   14.07176
       O   -19.65364   -2.03431   14.30845
      H1   -19.63907   -2.25499   15.20580
       H   -14.68490   -4.56466   16.32919
       O   -14.00079   -4.44271   15.67305
      H1   -13.68375   -3.52553   15.91505
       H   -14.45363    1.36284    6.32659
       O   -14.75339    1.65627    5.45867
      H1   -15.65664    2.05592    5.64329
       H   -12.44002   -5.50749   16.04177
       O   -11.55460   -5.89920   16.16008
      H1   -11.82615   -6.68013   16.67423
       H   -16.21394    4.56638   10.48285
       O   -15.44428    5.07911   10.79421
      H1   -14.66010    4.58418   10.64280
       H   -16.43034   -1.58770   14.33329
       O   -17.00549   -2.00436   13.65643
      H1   -16.85659   -1.41181   12.85051
       H   -14.28009   -4.53411   12.07633
       O   -14.84045   -3.95355   12.60366
      H1   -14.30387   -3.93723   13.41843
       H   -10.29249   -2.33540   14.26453
       O    -9.77099   -2.96780   14.78418
      H1    -9.64522   -2.48407   15.59147
       H   -17.29136   -8.19003   12.33209
       O   -17.74849   -7.48835   12.82375
      H1   -18.08882   -6.93629   12.10542
       H   -17.68770    2.67189    4.83136
       O   -17.22083    3.08483    5.58674
      H1   -17.70107    2.91320    6.44240
       H   -14.42304   -8.24650   13.83495
       O   -15.18254   -8.48434   14.33460
      H1   -15.42621   -7.63057   14.66825
       H   -18.59904    0.06491    4.44632
       O   -18.24109   -0.77588    4.87340
      H1   -18.52609   -0.55087    5.76373
       H   -10.30031   -5.96201   11.97110
       O   -10.29598   -6.91510   11.95515
      H1   -10.14014   -7.18629   12.86591
       H   -13.80608   -4.32457    7.87655
       O   -13.59186   -4.80638    7.08927
      H1   -14.26402   -4.40124    6.49397
       H   -11.19182    2.05296    8.27900
       O   -10.43146    2.48570    7.80198
      H1    -9.68870    2.12836    8.26432
       H   -12.43035    3.97800   12.38078
       O   -11.87390    4.32595   13.13101
      H1   -12.56312    4.30509   13.88517
       H   -11.44629   -5.00831    8.44546
       O   -11.27087   -5.27035    9.34259
      H1   -12.18696   -5.31517    9.69052
       H   -16.79440   -6.69533    5.95702
       O   -16.36485   -5.84188    6.15318
      H1   -17.04796   -5.20143    6.11083
       H   -16.29084    0.51301   15.47995
       O   -15.55288   -0.16338   15.38138
      H1   -14.87383    0.37808   14.93875
       H   -13.89119    1.06866   10.64151
       O   -14.02509    0.52191   11.44659
      H1   -14.26398   -0.34863   11.08604
       H   -14.31625   -6.46168   10.54055
       O   -14.09694   -5.58918   10.36133
      H1   -14.96976   -5.24407   10.15898
       H    -9.20126   -2.86089   10.65911
       O    -8.42566   -3.20301   11.05874
      H1    -7.70570   -3.11488   10.39852
       H   -18.98092    3.02352   13.17229
       O   -19.41376    3.64764   12.58089
      H1   -19.95644    3.07065   11.97903
       H   -13.20591    1.73316   14.30303
       O   -13.37142    0.77813   14.05533
      H1   -13.79394    1.05373   13.17132
       H   -12.85666   -0.58445    6.23955
       O   -13.29457   -0.09412    6.98699
      H1   -13.59164   -0.85264    7.49596
       H   -18.11179    0.08544    9.84818
       O   -18.62927   -0.26510   10.66204
      H1   -18.14385    0.10065   11.39493
       H   -16.48830   -0.53260    4.85588
       O   -15.61758   -0.72939    4.63722
      H1   -15.22322    0.16120    4.78812
       H   -11.26668   -1.62039    4.90084
       O   -12.19496   -1.79271    5.11505
      H1   -12.40354   -2.08167    4.20027
       H    -9.75307    0.58210   10.31332
       O   -10.72141    0.74692   10.35078
      H1   -10.79283    1.51940   10.95440
       H   -13.25486   -1.01470   15.89851
       O   -12.88556   -1.77879   16.38903
      H1   -11.96298   -1.68668   16.24544
       H   -18.71155   -7.09680   10.18428
       O   -18.82760   -6.22368   10.56848
      H1   -18.26782   -5.64797   10.04644
       H   -12.13316   -0.62682   13.78728
       O   -11.58637   -1.37915   13.50399
      H1   -12.12787   -1.91976   12.94413
       H   -14.05869   -8.99879    9.32527
       O   -14.10291   -8.55638   10.19219
      H1   -14.75134   -9.10708   10.61078
       H   -15.82456    0.35100   11.93168
       O   -16.60380    0.82181   12.28563
      H1   -16.78505    1.53016   11.56611
       H   -15.16020   -9.45868   12.81966
       O   -15.18791  -10.13093   12.11919
      H1   -16.10447  -10.21540   11.87887
       H   -11.08096   -2.12635    8.87593
       O   -11.21077   -2.13457    9.89419
      H1   -10.93932   -1.21346   10.10016
       H   -14.00874    2.43461    8.34922
       O   -13.49544    1.87409    8.98054
      H1   -13.22432    1.11360    8.40057
       H   -18.86260   -5.94763   16.51406
       O   -18.81105   -5.14160   15.97022
      H1   -18.05975   -5.39897   15.43028
       H   -13.44980   -6.64373    6.45544
       O   -13.36208   -7.39403    5.84044
      H1   -12.85739   -7.99611    6.40560
       H   -12.92125   -2.60768    9.32384
       O   -13.79567   -2.42528    8.79316
      H1   -14.52234   -2.21090    9.41339
       H   -17.15131    2.02577   13.83830
       O   -17.73314    2.58871   14.37768
      H1   -17.17090    3.24789   14.76573
       H   -16.66007   -6.16952   13.67390
       O   -16.39215   -5.84738   14.55355
      H1   -16.11159   -4.90991   14.28423
       H    -9.57391   -0.60174   12.55692
       O    -8.82531   -0.11078   13.00944
      H1    -9.36340    0.63866   13.34984
       H   -15.02014    4.84283   14.19638
       O   -14.33224    4.34115   14.69790
      H1   -14.33742    4.83842   15.54488
       H   -15.21790    3.48487    6.37521
       O   -15.07441    3.80737    7.22131
      H1   -15.88288    4.34381    7.35456

