180
frame 10 | Written by MDAnalysis XYZWriter (release 2.4.3)
       H    12.72173   -9.40436   -7.25530
       O    12.81463  -10.07874   -6.53660
      H1    13.06093   -9.55349   -5.76857
       H    16.70863   -4.59830   -4.36092
       O    17.03339   -3.93236   -3.75704
      H1    17.96270   -4.25952   -3.57481
       H    12.67746   -5.13431   -3.59250
       O    12.73119   -5.36317   -4.56609
      H1    12.20576   -6.15381   -4.65139
       H    16.61917   -6.57752  -13.63403
       O    15.97763   -6.63565  -12.94052
      H1    15.73995   -5.71847  -12.82438
       H    17.53679   -0.71734  -10.54474
       O    17.06012   -0.09524  -11.14372
      H1    17.70686    0.65624  -11.24932
       H    13.25455  -10.35677   -1.84814
       O    12.59970  -10.74833   -2.49993
      H1    12.17941  -11.46958   -1.98023
       H    13.35718    0.82290  -11.49093
       O    12.86283    0.00249  -11.64154
      H1    13.14627   -0.46527  -10.88420
       H    13.81783   -5.88878   -1.64028
       O    13.32972   -5.07986   -1.72463
      H1    14.06825   -4.46276   -1.46726
       H     9.45295   -3.04197  -10.35236
       O     9.67601   -3.01783   -9.40345
      H1     8.84035   -3.07514   -8.95089
       H    13.40771   -8.24938   -4.17160
       O    14.15292   -8.49625   -4.77021
      H1    14.47588   -7.68556   -5.19082
       H    13.27631   -5.56731  -11.27982
       O    12.31924   -5.77933  -11.46312
      H1    11.94688   -5.47223  -10.60936
       H    18.73561   -2.59956   -9.73723
       O    18.62174   -1.63531   -9.79081
      H1    19.12484   -1.39361  -10.65466
       H    15.26364   -6.00569   -6.23138
       O    15.41345   -5.98610   -5.28010
      H1    14.59460   -5.65381   -4.88586
       H    11.40439   -7.58264   -1.90595
       O    11.47564   -7.99282   -2.83128
      H1    11.72202   -8.94303   -2.65048
       H    10.78243  -10.75909  -10.18563
       O    11.64244  -11.24391  -10.39891
      H1    11.44621  -11.77631  -11.21465
       H    18.32904   -2.14200   -6.01470
       O    17.39623   -2.43184   -6.00171
      H1    17.24567   -2.62013   -5.04511
       H    12.35541   -4.22136  -12.65951
       O    12.70049   -3.31276  -12.57882
      H1    12.32257   -3.03221  -13.44588
       H     9.88173   -3.70065   -5.32577
       O     9.88481   -4.00396   -6.26077
      H1    10.81488   -3.85076   -6.49181
       H    18.71716   -7.20879   -1.15871
       O    18.10743   -6.77792   -1.73833
      H1    18.57133   -6.78993   -2.60071
       H    16.83805   -8.19929   -7.46347
       O    17.37041   -7.63174   -6.86615
      H1    16.98434   -7.73063   -5.99202
       H    17.72305  -13.02263   -6.57406
       O    17.22150  -12.28545   -6.96054
      H1    17.25321  -12.49851   -7.90176
       H    13.57138    1.33934   -5.37333
       O    13.89664    0.44266   -5.47754
      H1    14.23753    0.41598   -6.37510
       H    10.56131   -1.17136   -8.73907
       O    10.39672   -0.24208   -8.81916
      H1     9.58463   -0.33848   -9.36453
       H    16.15791   -7.02338   -1.45554
       O    15.30065   -7.05390   -1.11493
      H1    14.90266   -7.90560   -1.34700
       H    15.34725   -3.96616   -9.21889
       O    15.49012   -4.69397   -9.82187
      H1    16.41522   -4.85718   -9.86923
       H    10.04960  -11.60467   -6.37385
       O    10.42374  -11.20786   -5.59079
      H1    11.20074  -10.69615   -6.00257
       H    16.56236   -1.49719  -14.42000
       O    16.75724   -2.46625  -14.51483
      H1    16.26210   -2.81697  -13.74736
       H    14.43024   -7.17680   -8.43830
       O    14.41279   -6.37487   -7.86605
      H1    14.90946   -5.70837   -8.44200
       H    18.25429   -4.49805   -8.66215
       O    18.39509   -4.25705   -9.61505
      H1    18.96380   -4.98773  -10.01106
       H    16.05026  -10.92791   -7.23880
       O    15.54870  -10.07840   -7.13090
      H1    14.61188  -10.39253   -6.92454
       H    18.20977  -10.26670   -9.42844
       O    19.14171  -10.19924   -9.51499
      H1    19.43192  -10.66718   -8.69958
       H    15.83606  -10.21131   -9.14451
       O    16.23845  -10.87552   -9.76901
      H1    15.91974  -10.55607  -10.59436
       H    15.34883   -4.08992  -11.58708
       O    15.22451   -3.93453  -12.52330
      H1    14.33513   -3.57615  -12.51423
       H    14.33223   -2.72683   -7.61890
       O    15.16253   -2.48177   -8.02658
      H1    15.79560   -2.45592   -7.22365
       H    10.17421   -0.44999  -12.17494
       O    10.43318   -1.39094  -12.23477
      H1    10.79369   -1.36346  -11.33512
       H     8.02378   -7.14613   -8.61412
       O     8.62831   -7.72256   -8.10434
      H1     9.25651   -7.03857   -7.85358
       H    10.31671   -4.67865   -9.10018
       O    10.52435   -5.62536   -9.25060
      H1     9.96467   -5.78307  -10.04344
       H    10.29213   -5.97291   -5.21261
       O    10.47229   -6.91554   -5.28718
      H1    10.40112   -7.22562   -4.39543
       H     9.06182   -9.11245   -9.28099
       O     9.12356  -10.06431   -9.55586
      H1     8.85971   -9.88242  -10.51682
       H    13.75513   -8.00368  -14.78067
       O    14.52472   -8.60926  -14.68105
      H1    14.98023   -8.19788  -13.92629
       H     8.68968   -8.16908   -4.48259
       O     8.33321   -9.02975   -4.61965
      H1     8.75213   -9.38439   -5.40142
       H    13.26976   -1.18100   -5.04235
       O    12.84936   -1.87999   -4.51741
      H1    11.89354   -1.67074   -4.48787
       H    11.87025   -7.34877  -14.07175
       O    12.24666   -7.08104  -14.91273
      H1    12.08777   -7.86441  -15.41605
       H     8.24782   -6.30182  -11.26928
       O     8.98656   -5.88331  -11.61942
      H1     9.45668   -6.57147  -12.10306
       H    15.81755  -12.90653  -10.45577
       O    15.15619  -13.49778  -10.70248
      H1    15.59013  -14.29507  -10.43328
       H    12.47474   -2.76975   -6.08901
       O    12.54028   -3.32936   -6.88778
      H1    13.04546   -4.00448   -6.46010
       H     9.51757   -1.06969   -5.24886
       O    10.23266   -1.45341   -4.70015
      H1     9.87509   -1.82083   -3.93181
       H    12.20507   -7.24649   -7.91884
       O    12.21047   -8.16241   -8.17780
      H1    11.23964   -8.25654   -8.31260
       H    17.59008   -4.25190   -6.37487
       O    18.13352   -4.95306   -6.81228
      H1    17.62162   -5.77150   -6.72392
       H    16.48773   -3.92244   -2.06025
       O    16.32312   -3.85256   -1.09156
      H1    15.83418   -3.01145   -0.91855
       H    15.20932  -14.37006   -6.24883
       O    14.74551  -13.45194   -6.30514
      H1    15.46294  -12.82047   -6.34177
       H     7.23785   -4.08650   -7.93423
       O     7.58140   -3.20073   -7.59694
      H1     8.39565   -3.39488   -7.12433
       H    14.48553   -0.57901   -8.12138
       O    14.37208    0.34726   -8.28515
      H1    13.54886    0.53182   -7.78501
       H    16.45143   -9.73585   -5.42854
       O    16.90303   -9.47442   -4.65605
      H1    16.16475   -9.47874   -4.06098
       H    10.92813  -12.39322   -9.09931
       O    10.74957  -13.08666   -8.41531
      H1    11.50579  -13.71140   -8.58820
       H    13.95493  -10.70744  -12.14097
       O    13.23420  -10.09715  -12.07412
      H1    12.68506  -10.45714  -11.34830
       H    15.55548   -8.32460  -10.56062
       O    14.91265   -8.42368   -9.87627
      H1    14.03566   -8.67286  -10.26827
       H    11.64930   -8.85521  -12.62234
       O    11.12426   -8.05501  -12.62086
      H1    11.62261   -7.45151  -12.03756
       H    15.76531  -11.65725  -13.30151
       O    16.06079  -10.80519  -12.89647
      H1    15.75177  -10.11544  -13.49470
       H    18.19776   -7.76658  -10.80208
       O    17.20572   -7.87366  -10.84523
      H1    16.97465   -7.24098  -11.56955

