180
frame 11 | Written by MDAnalysis XYZWriter (release 2.4.3)
       H     2.76833   15.58240  -10.71678
       O     1.98386   15.08406  -10.54355
      H1     1.24770   15.71183  -10.55436
       H     2.31224   14.65195  -15.53919
       O     3.19801   14.47738  -15.42228
      H1     3.52763   14.28585  -16.29718
       H     4.12495   17.99916  -15.40563
       O     3.59964   17.42793  -14.84831
      H1     3.69256   16.53950  -15.11360
       H     7.66323   10.16133  -11.91529
       O     8.65145   10.11658  -11.64251
      H1     8.71779   10.76070  -10.90793
       H     8.73312   14.73280  -10.37300
       O     8.02043   14.21256  -10.81617
      H1     8.46648   13.55582  -11.41559
       H    -2.34091   16.17673  -12.79853
       O    -2.83101   16.90729  -13.13269
      H1    -2.43097   17.13587  -14.00142
       H     6.98040   16.94908  -17.67312
       O     6.54554   17.23519  -18.51391
      H1     6.40394   18.19819  -18.41549
       H     4.93996   16.34722  -11.21630
       O     4.26904   16.13879  -11.84665
      H1     4.19840   17.05647  -12.21301
       H     0.13901   15.28663  -14.36463
       O     0.56510   15.04269  -15.18583
      H1     0.18373   14.17519  -15.33614
       H    11.33830   15.00875  -19.50533
       O    10.44313   15.41415  -19.50955
      H1    10.10462   15.15310  -18.63563
       H     0.00265   12.45817  -12.25526
       O    -0.74490   12.01328  -12.70710
      H1    -1.28948   11.56764  -12.07373
       H     2.15288   14.00344  -12.01942
       O     2.01600   13.10589  -12.36433
      H1     1.76854   13.34488  -13.28777
       H     4.95414   14.78429  -12.98364
       O     5.39261   14.17312  -13.62564
      H1     4.79464   14.30351  -14.43643
       H     0.33171   15.74567  -18.45041
       O     0.51961   16.37271  -17.72902
      H1     0.54696   15.75409  -16.99487
       H    -3.80521   15.86929  -18.38420
       O    -3.45705   15.01006  -18.80713
      H1    -4.27378   14.56527  -19.22330
       H     4.48174   18.37181  -13.01622
       O     4.89749   18.64106  -12.18380
      H1     5.83103   18.63988  -12.25576
       H    -0.98775   17.69295  -15.25122
       O    -1.87666   17.67444  -15.70006
      H1    -1.70850   17.67814  -16.63607
       H    -2.96427   13.42507  -14.41818
       O    -2.08353   13.38443  -14.85838
      H1    -1.42687   12.85387  -14.32077
       H     7.66167   16.80049  -12.95346
       O     7.68149   16.03105  -13.54632
      H1     7.42244   15.28519  -12.96273
       H     0.36114    9.09670  -12.93300
       O     1.07723    9.73106  -12.63077
      H1     0.66271   10.62634  -12.56748
       H    -1.03261    9.39905  -16.68997
       O    -0.28490    9.76771  -17.26543
      H1    -0.68136   10.08076  -18.00857
       H     2.69750   10.33670   -8.64453
       O     3.56581   10.66617   -8.32763
      H1     3.84095   11.32602   -8.92072
       H     8.41440   17.39434  -10.83494
       O     7.96176   18.09554  -11.33103
      H1     8.66468   18.75273  -11.41057
       H     6.31130    8.85648  -16.39894
       O     6.51190    8.25895  -15.64360
      H1     6.21177    8.74449  -14.84411
       H     5.65284   16.21099   -8.88564
       O     6.02799   16.27434   -9.78733
      H1     6.70909   15.59939  -10.06404
       H     2.01227    9.32121  -18.91871
       O     1.57111    9.07172  -19.70684
      H1     2.09113    9.50608  -20.43081
       H     4.89975   13.27841  -11.19149
       O     4.46509   12.43671  -10.93624
      H1     3.73439   12.41566  -11.53277
       H     2.07142   17.82385  -10.51327
       O     1.61549   17.91705  -11.33868
      H1     0.86049   18.51801  -11.21255
       H     7.18452   15.54826  -15.17165
       O     7.09296   15.50161  -16.10859
      H1     6.48024   14.82675  -16.30325
       H     3.01665    8.78242  -11.04973
       O     3.80903    8.67460  -11.50484
      H1     3.55235    8.87285  -12.40325
       H     1.70918   17.88038  -14.55584
       O     0.78970   18.14252  -14.25188
      H1     0.87838   18.23772  -13.23526
       H    10.20586   15.45380  -15.93416
       O     9.71958   15.23291  -16.78525
      H1     8.78726   15.19591  -16.60982
       H     7.04534   13.33482  -17.74183
       O     7.98562   13.12827  -17.94020
      H1     8.31416   12.73876  -17.12596
       H     9.96488   13.30204  -15.90463
       O     9.87362   12.36756  -15.63641
      H1     9.55794   12.38257  -14.76813
       H    -0.00541   13.32150  -19.85116
       O     0.03817   13.72975  -18.89762
      H1    -0.84791   13.57121  -18.53647
       H    11.09006   15.45492  -14.28603
       O    10.34129   16.10221  -14.23799
      H1     9.72741   15.69067  -13.69104
       H     0.68337    8.33560  -16.47946
       O     1.14141    7.61571  -16.03598
      H1     1.89969    7.82910  -15.45225
       H     3.17745    9.75233  -16.64376
       O     3.32964   10.20361  -17.45223
      H1     4.24512    9.90833  -17.63707
       H     4.80902   13.31364  -17.39181
       O     5.56328   13.49786  -16.89475
      H1     5.58289   12.82210  -16.19075
       H     9.43379   18.92811  -15.47144
       O    10.00487   18.84192  -14.69140
      H1    10.11820   17.90911  -14.66031
       H     3.66565   16.95034  -18.06648
       O     4.17459   16.17684  -17.91723
      H1     5.07638   16.53080  -18.07390
       H     8.24955   11.90283   -8.62241
       O     8.04341   11.75136   -9.58096
      H1     7.78313   12.66672   -9.92420
       H    -2.49441   13.04940  -16.69263
       O    -2.41290   12.85763  -17.68087
      H1    -2.85881   13.64790  -18.08939
       H     6.92607   12.39853  -18.97460
       O     6.39079   11.64714  -19.32644
      H1     6.89524   11.20906  -20.05464
       H     0.07025   13.23151   -8.82916
       O     1.02083   13.34877   -8.62866
      H1     1.38101   13.85430   -9.34746
       H     1.86507   17.72495  -17.97890
       O     2.47681   18.12858  -18.61370
      H1     2.77841   18.94430  -18.10935
       H     1.82938   17.71988   -8.05427
       O     2.61661   17.47437   -8.51510
      H1     2.99960   18.31423   -8.71695
       H     1.70494   12.14335  -16.26427
       O     1.10305   12.18791  -15.52001
      H1     0.77299   11.31460  -15.46904
       H     3.55350   12.16698  -14.85544
       O     4.36185   11.64621  -14.55021
      H1     4.53903   11.95218  -13.67258
       H     6.56357    8.71563  -18.32101
       O     5.84195    9.32602  -18.06791
      H1     6.01289   10.12207  -18.63049
       H     5.35691    9.70360  -11.46909
       O     5.91975   10.43762  -11.69562
      H1     5.43269   11.25025  -11.38658
       H    -0.98581   14.36253  -12.91358
       O    -0.61535   15.23564  -12.74757
      H1    -0.64462   15.27269  -11.79297
       H    -2.40647    8.50471  -15.45185
       O    -2.62690    9.47815  -15.40742
      H1    -2.58399    9.66747  -14.44954
       H     1.78054   13.20461  -18.37480
       O     2.62391   13.01940  -17.92731
      H1     2.79914   12.08391  -17.89832
       H     3.34732   10.06586  -14.63212
       O     2.81806    9.28225  -14.57126
      H1     2.15756    9.39222  -13.84380
       H     1.13017   10.82613   -7.65906
       O     0.93961   10.75177   -8.60555
      H1     1.10315   11.69131   -8.83582
       H    -1.22820   14.76511   -9.41717
       O    -0.84741   15.45980   -9.95740
      H1    -1.25208   16.32869   -9.77586
       H     9.97485   12.92352  -12.88053
       O     9.02580   12.62955  -12.84467
      H1     9.06206   11.72233  -12.42828
       H     4.13920    7.08471  -17.96488
       O     3.98817    6.94771  -17.01211
      H1     4.89801    6.89286  -16.79743
       H    -3.59679   10.48337  -19.21489
       O    -3.09763   10.17112  -18.44101
      H1    -2.87852   10.95526  -17.86793

