180
frame 6 | Written by MDAnalysis XYZWriter (release 2.4.3)
       H     6.00161    5.33790  -18.81845
       O     5.05167    5.14294  -18.83730
      H1     4.63040    5.88938  -18.37953
       H     3.49250    7.97809  -12.81602
       O     4.16255    8.22032  -12.15837
      H1     4.22030    9.18319  -12.28203
       H    10.61491   11.50657  -15.74918
       O    10.68732   12.44382  -15.44057
      H1    11.12788   12.27564  -14.64293
       H     9.68284   10.38215   -9.90002
       O     8.80928   10.16430  -10.23582
      H1     8.35152    9.72001   -9.48132
       H     6.46716   12.37319  -11.39152
       O     6.27510   12.95986  -10.60219
      H1     5.51373   13.49236  -10.86304
       H    10.07271    2.60010  -18.54115
       O     9.48792    2.71969  -19.34935
      H1    10.06169    3.25091  -19.92489
       H     2.76558   10.70483  -12.28770
       O     3.69165   10.98041  -12.18024
      H1     3.74156   10.82869  -11.22394
       H     8.42183   12.85048  -18.55759
       O     8.10118   12.06582  -18.98659
      H1     7.11922   12.07949  -18.90775
       H     6.58988    9.21122  -15.29669
       O     7.26053    9.82535  -14.90406
      H1     6.89009   10.69937  -15.21465
       H    12.74806    4.44506  -17.25820
       O    11.97518    4.98797  -17.15212
      H1    11.38209    4.33693  -16.75422
       H     3.75613    2.99110  -11.27861
       O     4.61285    2.99624  -11.61126
      H1     4.83189    3.94105  -11.81676
       H     2.34859    1.18886  -12.91955
       O     3.22397    0.68892  -12.97232
      H1     3.73707    1.38994  -12.49115
       H     0.24530    5.22790  -11.52827
       O     1.15941    5.39779  -11.23355
      H1     1.64127    4.63820  -11.53592
       H    11.80705    8.30154  -13.84765
       O    11.34757    7.79440  -14.48914
      H1    11.95848    7.02230  -14.64646
       H     6.88185    1.35584  -12.80933
       O     6.96778    0.87513  -13.66251
      H1     6.02904    0.62515  -13.78355
       H     8.68605    0.15117  -14.07240
       O     9.40697   -0.34901  -14.53672
      H1    10.08496    0.32209  -14.63105
       H     8.22183   13.02068  -14.28749
       O     7.88011   12.73552  -15.17210
      H1     8.65145   12.40620  -15.65442
       H     0.55316    2.46793  -12.08147
       O     1.48092    2.66407  -12.35644
      H1     1.43306    3.20520  -13.21084
       H     6.98981    6.62590  -18.10337
       O     6.49575    7.46762  -18.13538
      H1     7.22861    8.09816  -17.96703
       H     4.69402   12.46691  -15.92442
       O     4.66337   11.53581  -16.19833
      H1     4.83488   11.70260  -17.15901
       H     6.99267    8.20669   -7.71648
       O     7.45684    8.14637   -8.58675
      H1     7.04810    7.45204   -9.07811
       H     2.27941    3.24430  -18.29601
       O     1.93994    3.50393  -17.39579
      H1     1.17644    4.04219  -17.64726
       H     2.51267   11.85973  -15.74459
       O     1.49346   11.95503  -15.74952
      H1     1.41774   12.64688  -16.47990
       H     5.05223    1.70014  -17.43917
       O     4.43096    1.22573  -17.96918
      H1     3.89276    0.85856  -17.23871
       H    10.84138    1.75735  -10.71510
       O    11.17313    2.49775  -11.27359
      H1    11.84293    2.84596  -10.63702
       H     9.94352    3.40175  -15.26621
       O     9.76306    3.22007  -16.18744
      H1     8.79128    3.03237  -16.25142
       H     1.26473    9.10497  -12.36073
       O     1.16252    9.97357  -11.91639
      H1     0.62620    9.70812  -11.15845
       H    12.81909    5.70244  -15.58564
       O    13.11748    5.72358  -14.67619
      H1    12.51579    5.03437  -14.26556
       H     2.09954    0.76240  -16.15072
       O     2.84727    0.35543  -15.69494
      H1     2.71305    0.66723  -14.78721
       H     4.31713    7.03713  -15.71108
       O     3.35637    6.89488  -15.89497
      H1     2.94030    7.62896  -15.38351
       H     8.68462    7.20690  -13.64004
       O     9.30051    6.47892  -13.40553
      H1    10.13290    6.79867  -13.91826
       H     6.59145    6.53391  -15.21534
       O     5.96611    7.21581  -15.47775
      H1     6.13158    7.27659  -16.44297
       H    -0.11854    7.13957  -18.64313
       O     0.39541    6.94198  -17.87035
      H1     0.90678    7.76878  -17.77984
       H     8.28067    5.45219  -14.46085
       O     7.48730    5.06150  -14.89852
      H1     7.05333    4.74045  -14.10478
       H     2.24948    9.90730  -15.66036
       O     3.02465    9.49962  -15.30435
      H1     3.65051   10.24982  -15.55727
       H     4.51028   11.78203   -9.42390
       O     4.83512   10.92379   -9.69044
      H1     5.69361   11.08337  -10.12327
       H     2.25672    4.12963  -15.66743
       O     2.38989    4.52034  -14.78408
      H1     2.68632    5.43089  -14.94378
       H     5.93753    5.61245   -9.32533
       O     6.41051    6.13257  -10.02862
      H1     7.27121    5.64664   -9.99890
       H     5.62161    4.39829  -15.59133
       O     5.12345    3.58038  -15.59269
      H1     4.26278    3.88795  -15.31603
       H    10.49066    9.23109  -15.87985
       O     9.71213    9.74208  -16.25830
      H1     9.00916    9.71835  -15.58592
       H     3.11100    6.79759   -8.87819
       O     2.71150    7.61471   -9.18358
      H1     3.11745    7.77405  -10.07819
       H     9.31444    5.61219   -9.61223
       O     8.85763    5.43433  -10.46268
      H1     8.99933    6.16076  -11.10026
       H     7.11521    7.87394  -11.98104
       O     7.75599    8.47530  -12.32074
      H1     8.12219    8.87495  -11.50791
       H    11.55976    0.94713  -17.90505
       O    11.81876    1.83204  -17.69540
      H1    11.69665    1.74611  -16.72566
       H    13.30518    9.24141  -17.79541
       O    13.31965    8.29127  -17.60224
      H1    13.99459    8.17915  -16.94716
       H     4.98597   13.43369  -19.34802
       O     5.32893   12.72258  -18.72798
      H1     5.51123   13.36427  -18.05812
       H    10.14708    4.49659  -13.24613
       O    10.69938    3.78977  -13.57368
      H1    10.95777    3.46996  -12.67136
       H    12.71949    1.07794  -14.00127
       O    12.10783    1.24736  -14.72044
      H1    11.48981    1.78562  -14.20759
       H     6.48274    2.34179  -15.84949
       O     6.93236    1.70323  -16.43443
      H1     7.04531    0.96878  -15.79615
       H     7.30091    2.09497  -10.60866
       O     7.37790    1.28843  -11.13663
      H1     6.68739    0.75094  -10.71967
       H     5.32135    6.70612  -12.86587
       O     5.75063    5.87074  -12.65926
      H1     6.02638    5.92183  -11.72804
       H     1.70549    9.93983  -18.26776
       O     0.98028    9.52401  -17.73658
      H1     0.19084   10.07019  -17.97593
       H    13.39950    9.48996  -13.12756
       O    12.52820    9.35010  -12.70428
      H1    12.12475   10.27686  -12.87769
       H     1.80914    6.78066  -12.13564
       O     1.67459    7.35156  -12.88585
      H1     0.89705    6.97220  -13.28107
       H     2.80661   13.56078  -12.37026
       O     3.78375   13.48488  -12.21016
      H1     3.93652   12.51667  -12.22911
       H     0.81830    5.34328  -14.65622
       O     0.02405    5.71626  -14.23742
      H1    -0.21858    6.33633  -14.93026
       H     3.05848    9.64612  -19.84450
       O     3.35253   10.19047  -19.08143
      H1     4.04542    9.73925  -18.60769
       H     5.75046    2.76530   -8.15898
       O     5.98924    3.17083   -9.02958
      H1     5.20201    3.11058   -9.65142
       H     8.70577    5.57175  -19.38071
       O     7.97698    5.13487  -18.91523
      H1     8.33858    4.23814  -18.63860
       H     5.60219   11.15709  -13.24272
       O     6.46096   11.47616  -12.87893
      H1     7.14657   10.87782  -13.32974

