180
frame 3 | Written by MDAnalysis XYZWriter (release 2.4.3)
       H    -7.14125  -15.55737   -1.33727
       O    -6.20936  -15.82880   -1.41142
      H1    -5.83309  -14.90099   -1.41269
       H    -0.93604  -18.99714   -1.06347
       O    -1.03705  -19.25188   -0.12644
      H1    -1.59110  -20.02150   -0.18211
       H    -1.75248  -14.91874    2.09620
       O    -2.11355  -14.04275    1.84054
      H1    -2.54863  -13.79968    2.68879
       H     2.16259  -14.07882    7.34891
       O     1.21004  -14.02975    7.30778
      H1     1.03151  -14.26128    6.36506
       H    -3.64814  -11.54565    7.48475
       O    -3.52601  -11.06311    6.59872
      H1    -2.84187  -10.37999    6.79356
       H    -1.40730  -15.46491    8.22223
       O    -1.01586  -15.80475    7.41158
      H1    -0.19487  -15.27379    7.51393
       H    -6.04649  -11.96333    1.04274
       O    -5.60086  -11.75769    0.20546
      H1    -4.86682  -11.23140    0.60512
       H    -7.56369  -12.72139    2.16855
       O    -7.81557  -13.39547    1.49072
      H1    -7.24312  -14.17309    1.71260
       H    -4.84893  -16.05308    9.47252
       O    -5.68460  -16.12145    9.92370
      H1    -6.26526  -16.16193    9.11944
       H   -10.94025  -14.49452    0.96289
       O   -11.34135  -13.64486    1.28656
      H1   -10.67757  -13.27551    1.84307
       H    -7.47208  -10.46828    3.00527
       O    -6.96827  -11.26767    3.26445
      H1    -6.78937  -11.06071    4.15717
       H    -9.76932  -15.08634    3.21740
       O    -9.00887  -14.65419    3.65667
      H1    -8.60764  -14.25631    2.86806
       H    -6.83201  -13.34021   10.81673
       O    -6.87472  -14.15660   11.37638
      H1    -6.36878  -14.81685   10.79471
       H     0.04953  -17.48021    7.00193
       O     0.56856  -18.21970    6.63329
      H1     0.20063  -18.55475    5.88301
       H    -2.12750  -13.43621   -1.40520
       O    -2.61500  -13.78951   -2.17088
      H1    -2.84176  -12.94071   -2.61512
       H     0.83038  -12.86114    2.13574
       O     0.53767  -13.63716    1.78023
      H1    -0.44533  -13.67659    2.05284
       H    -1.39914  -16.53207   -3.03379
       O    -1.33608  -15.93970   -3.75374
      H1    -1.61122  -15.07730   -3.38312
       H    -1.49509  -12.32394    3.83187
       O    -1.01030  -11.60931    3.31802
      H1    -1.20823  -10.84882    3.93028
       H    -2.84721  -17.35802   10.71324
       O    -2.85702  -16.90213    9.84884
      H1    -2.68928  -17.58981    9.19934
       H    -8.38230  -13.72665   -1.46674
       O    -8.60254  -14.60220   -1.83644
      H1    -9.00478  -14.99008   -1.04522
       H    -4.91855  -17.65280   -0.84767
       O    -4.90396  -18.59128   -0.99537
      H1    -5.38750  -18.68032   -1.87241
       H    -5.50985  -15.39214    1.95387
       O    -6.18395  -15.16817    2.63308
      H1    -5.78040  -15.49097    3.48184
       H    -2.63867  -18.26669    7.15968
       O    -2.78156  -18.66211    8.02927
      H1    -3.71881  -18.83528    8.04272
       H     3.46597  -17.89750    4.70806
       O     3.44136  -16.92647    4.56018
      H1     3.90460  -16.49660    5.29069
       H    -2.74693  -18.54827    1.32393
       O    -3.25718  -18.32295    2.15708
      H1    -2.52771  -18.31605    2.78328
       H    -3.56571  -13.34683    9.07532
       O    -4.31365  -12.80518    8.76494
      H1    -4.79014  -13.34646    8.12502
       H   -12.05975  -16.45105    3.85830
       O   -11.09094  -16.26193    3.82255
      H1   -10.71357  -16.75598    4.54883
       H   -10.43192  -15.48476    9.72358
       O   -10.72512  -16.30468    9.25451
      H1   -11.34138  -15.87054    8.63378
       H    -1.11923  -16.49519   10.04508
       O    -0.32998  -15.97062   10.19204
      H1     0.31806  -16.59456   10.61146
       H    -6.93587  -19.23462   -3.31382
       O    -5.97594  -19.18408   -3.48905
      H1    -5.85722  -18.23606   -3.70925
       H    -5.36291  -18.66433    6.38090
       O    -5.32801  -18.77109    7.30671
      H1    -6.29141  -18.86404    7.53526
       H    -7.25143  -13.47364    7.66740
       O    -6.62273  -14.17733    7.38824
      H1    -7.24350  -14.92125    7.27279
       H    -1.38700  -12.99321    0.48614
       O    -1.05740  -12.69795   -0.37028
      H1    -0.40661  -13.39417   -0.64589
       H    -0.85427  -14.38535    4.51155
       O    -0.38225  -13.68291    4.93047
      H1    -0.01417  -13.27001    4.10353
       H    -9.90400  -11.15059    2.96933
       O   -10.45967  -11.85210    3.27492
      H1    -9.84915  -12.35105    3.90268
       H    -5.35710  -16.25139    5.80197
       O    -5.36286  -16.59031    4.93953
      H1    -6.24840  -16.94351    4.84445
       H    -7.82535  -17.93963    8.44070
       O    -7.76379  -18.93175    8.33741
      H1    -7.19248  -19.14163    9.10699
       H    -5.42871  -12.61668   -1.15521
       O    -5.48046  -13.33800   -1.84257
      H1    -4.55140  -13.65580   -1.95601
       H    -9.56254  -17.70532    3.03139
       O    -8.68608  -17.42211    2.80713
      H1    -8.66990  -16.50171    3.08612
       H    -9.07610  -16.18613    8.26751
       O    -8.28589  -16.37586    7.68303
      H1    -8.76504  -16.82261    6.96722
       H    -8.50708  -12.64049    5.87102
       O    -9.30373  -12.87067    5.38872
      H1    -9.11814  -13.77010    5.04523
       H    -0.48303  -17.38881    0.68776
       O    -0.39338  -16.45181    0.52190
      H1     0.47359  -16.33716    0.88067
       H    -2.62174  -15.02801    6.37197
       O    -3.58023  -14.76499    6.60143
      H1    -3.66314  -13.91942    6.12821
       H     3.04538  -18.50815    8.61210
       O     2.34876  -19.13313    8.79232
      H1     1.74896  -18.80210    8.10077
       H   -13.46752  -17.74595    0.75713
       O   -12.72550  -17.42014    1.25276
      H1   -12.19493  -18.23703    1.30379
       H     1.41443  -13.70702   -0.60744
       O     1.09811  -14.29649   -1.28257
      H1     0.61654  -14.97307   -0.71519
       H   -10.95497  -16.79954    0.96149
       O   -10.09616  -16.45490    0.67447
      H1    -9.53712  -16.95975    1.22729
       H    -3.47198  -16.85268    0.89287
       O    -3.68327  -16.00213    0.39022
      H1    -3.09477  -15.37166    0.81963
       H    -5.45946  -10.53823    5.58754
       O    -6.35218  -10.46900    5.95610
      H1    -6.14423   -9.88431    6.70207
       H    -2.70471  -18.86526    5.46609
       O    -2.71101  -17.88481    5.45725
      H1    -3.67127  -17.63190    5.20116
       H    -3.47482  -12.01627    4.71801
       O    -3.56942  -12.85965    4.21473
      H1    -4.09872  -12.57348    3.47544
       H    -5.67355  -19.19953   10.82377
       O    -5.90866  -18.42342   11.40727
      H1    -5.72770  -17.69245   10.84824
       H     2.30450  -18.01963    2.28907
       O     1.80074  -17.15515    2.43452
      H1     2.26720  -16.76417    3.21596
       H    -9.21869  -18.91292    5.14381
       O    -9.66832  -18.21860    5.60447
      H1   -10.41605  -18.60176    6.15063
       H    -1.62046  -16.55376    4.21980
       O    -1.87032  -15.62425    3.94992
      H1    -2.68770  -15.53151    4.47874
       H    -0.03758  -19.78700    3.41655
       O    -0.36106  -18.86588    3.42026
      H1     0.45478  -18.40004    3.07140
       H    -0.96637  -18.51474   -4.00558
       O    -0.35075  -18.64552   -3.24327
      H1     0.31735  -19.18253   -3.68346
       H    -5.59783  -15.89747   -4.47581
       O    -6.47553  -15.61186   -4.28569
      H1    -6.62837  -15.78594   -3.36989
       H    -5.01576  -18.46005    3.58140
       O    -5.74639  -19.03806    3.89293
      H1    -6.44136  -18.86337    3.21314
       H    -8.88346  -19.04022   -4.11205
       O    -8.78707  -18.90699   -3.16670
      H1    -8.92735  -17.96907   -2.97556

