180
frame 1 | Written by MDAnalysis XYZWriter (release 2.4.3)
       H    -2.30851   13.00814    3.58600
       O    -2.51210   13.88851    3.22436
      H1    -3.38861   13.80912    2.81266
       H     1.57451   19.04021    1.67166
       O     1.52059   18.10216    1.80270
      H1     0.71128   17.81397    1.30178
       H    -4.81577   18.85799    5.48544
       O    -5.73192   18.79198    5.14320
      H1    -5.62206   18.59068    4.18084
       H    -7.58005   16.25908    5.42282
       O    -8.44545   16.45124    5.10978
      H1    -8.56603   15.80979    4.41756
       H    -7.31381   17.94128   10.83809
       O    -7.76097   17.05150   10.71367
      H1    -7.35197   16.34289   11.28781
       H     0.81998   19.27017   12.17780
       O     1.60022   19.19434   12.67683
      H1     1.95120   18.31738   12.68215
       H   -10.95141   16.97433   10.07823
       O   -10.26280   17.45599    9.61223
      H1    -9.39403   17.20953    9.92762
       H    -7.83753   12.27804    6.68721
       O    -7.77871   13.13192    7.07901
      H1    -8.60748   13.57411    6.88271
       H   -13.40111   16.46950    6.55795
       O   -12.53785   16.81688    6.22303
      H1   -12.02481   16.01493    6.24754
       H    -2.33487   16.65741    3.59928
       O    -2.00558   16.91947    2.71618
      H1    -1.89719   17.88567    2.84386
       H    -5.92617   10.12674   10.66301
       O    -5.97998   10.95096   11.14334
      H1    -5.87698   10.70716   12.07354
       H     3.37149   20.05483    5.63680
       O     3.27498   19.10037    5.49809
      H1     4.16705   18.78503    5.19979
       H    -2.55135   14.03731    8.21264
       O    -3.23067   14.70757    8.10615
      H1    -3.09279   14.98754    7.11460
       H    -8.05597   14.73288   12.46747
       O    -7.24788   14.97180   12.03246
      H1    -7.00076   14.30282   11.37885
       H     2.98932   18.50167    7.13205
       O     2.89552   17.98642    8.00667
      H1     2.01716   18.35930    8.40002
       H     4.25101   18.79571    9.21771
       O     4.77548   19.47080    9.70480
      H1     4.71471   20.31201    9.24411
       H     2.69100   16.07962   12.10550
       O     1.97311   16.41572   12.64554
      H1     1.14465   16.06545   12.25247
       H     2.29125   14.68381    7.25489
       O     2.79693   15.23597    7.85373
      H1     2.59314   16.14748    7.68287
       H     1.46456   17.85822    3.73276
       O     1.39725   17.44914    4.57718
      H1     2.19276   17.85818    5.02164
       H    -9.58117   18.20965    4.32222
       O    -9.98087   19.02213    3.94024
      H1   -10.25399   19.49863    4.72245
       H    -1.65681   11.89698   11.17253
       O    -0.80101   12.36215   11.09068
      H1    -0.89841   12.72651   10.18907
       H    -9.82407   11.98066   10.96329
       O    -9.86843   12.39581   10.09971
      H1    -8.96302   12.74238   10.01291
       H     1.48340   13.26496    5.81744
       O     1.21376   13.49253    6.67959
      H1     1.40454   12.79234    7.31664
       H    -0.66815   14.59724    2.67937
       O     0.26720   14.62764    2.55974
      H1     0.57248   15.45835    2.88000
       H    -5.26777   16.88810   14.82189
       O    -5.38975   17.77348   15.20883
      H1    -5.19688   18.40004   14.51359
       H    -4.33713   11.44870   11.31950
       O    -3.36689   11.41527   11.34996
      H1    -3.10287   10.79135   10.63948
       H    -5.89991   14.69233    2.22940
       O    -4.98899   14.99931    1.97847
      H1    -5.10098   15.94089    1.69763
       H    -5.25982   12.51946    3.54296
       O    -5.32677   11.78064    2.90261
      H1    -6.10974   12.05677    2.43437
       H   -10.29903   15.89663    7.70874
       O   -10.05086   15.36786    6.93902
      H1    -9.50892   15.94135    6.37369
       H    -1.28128   17.11451    0.65927
       O    -0.54791   17.32361    0.08407
      H1    -0.55317   16.66766   -0.61992
       H    -2.47479   17.24140   10.38826
       O    -1.83163   16.85567    9.76106
      H1    -2.36301   16.25001    9.31317
       H    -1.36571   12.27567    7.58066
       O    -0.96768   12.83170    8.29760
      H1    -0.50780   13.43766    7.77363
       H    -0.87666   13.56684   15.94448
       O    -1.45371   13.96325   15.31150
      H1    -1.44719   14.91489   15.35797
       H   -10.12309   13.92641    3.44190
       O    -9.36277   14.57800    3.40209
      H1    -9.62979   15.05520    2.59621
       H    -1.06325   15.73884   10.83298
       O    -0.38341   15.35545   11.39403
      H1    -0.69680   14.46222   11.62678
       H    -7.55686   16.33721   16.98865
       O    -6.66575   16.33576   17.32823
      H1    -6.11639   16.91519   16.81227
       H    -3.23675   16.85048   13.04125
       O    -2.56862   17.31748   12.50100
      H1    -1.80770   16.75721   12.55988
       H     1.33753   14.49981   10.66893
       O     2.30213   14.27809   10.52856
      H1     2.44379   14.74215    9.68584
       H    -0.32852   13.27653   13.87857
       O     0.34537   12.81470   13.39610
      H1    -0.14326   12.56443   12.56968
       H    -1.23348   19.12239   -0.02563
       O    -1.88848   19.71918   -0.43170
      H1    -2.38901   20.14550    0.28668
       H    -6.21032   19.68700   12.10434
       O    -6.58077   19.56714   11.20270
      H1    -5.75684   19.74172   10.69432
       H   -11.34309   18.25510    6.86081
       O   -10.84257   19.09221    6.92164
      H1   -10.88259   19.58225    7.76796
       H    -5.45440   15.38039   13.73692
       O    -4.55103   15.47842   14.14985
      H1    -4.52450   14.73320   14.80537
       H    -0.50645   17.99069    8.97347
       O     0.10543   18.29463    8.28399
      H1    -0.31039   18.00115    7.47918
       H    -9.13730   17.05665   12.04869
       O    -9.61700   16.85581   12.89880
      H1   -10.57494   17.05842   12.74462
       H    -6.57973   17.78917    1.78703
       O    -5.73903   17.96421    2.35060
      H1    -5.35792   18.71773    1.82949
       H    -3.85236   17.70193   16.65417
       O    -3.13968   17.29681   17.23274
      H1    -3.40802   17.76880   18.04499
       H    -7.78104   17.77227   -0.03936
       O    -7.97857   17.85827    0.90387
      H1    -8.48106   18.69914    0.97959
       H    -2.74576   10.69530    7.40324
       O    -2.58658   11.32868    6.64060
      H1    -3.41464   11.75923    6.39496
       H    -8.75239   17.95210   13.97231
       O    -8.29631   18.46821   14.63419
      H1    -7.36291   18.38036   14.50793
       H     0.00257   17.57988    5.28868
       O    -0.86053   17.60855    5.81344
      H1    -1.47360   16.84730    5.63897
       H    -7.33424   12.94743    8.71907
       O    -7.14727   13.06447    9.67642
      H1    -6.98881   12.13302   10.03116
       H    -4.33623   18.30270    9.28929
       O    -4.19019   19.25926    9.37512
      H1    -3.74039   19.49648    8.53835
       H    -4.85311   15.13257    8.56953
       O    -5.69731   15.64076    8.74953
      H1    -6.39019   15.04922    9.03728
       H    -3.27270   20.21501    6.27723
       O    -3.39200   19.28453    6.48791
      H1    -2.54536   18.85299    6.25234
       H    -5.74464   17.03530    5.72303
       O    -5.64510   16.09277    6.00867
      H1    -5.85262   16.09102    6.94398
       H     4.94879   18.47461   12.78620
       O     4.56973   18.14201   11.94530
      H1     4.74421   18.82222   11.29451
       H    -1.84804   17.04090   16.22624
       O    -1.20459   16.94561   15.43465
      H1    -0.81411   17.80866   15.36952
       H    -3.83361   15.96904    5.43223
       O    -2.91875   15.72151    5.30767
      H1    -2.85585   14.96535    4.63281
       H    -5.50548   13.29008    5.80215
       O    -4.97835   12.51813    5.54297
      H1    -5.50793   11.79296    5.82140

