180
frame 6 | Written by MDAnalysis XYZWriter (release 2.4.3)
       H     8.75035  -15.85705    5.21259
       O     9.03164  -15.19115    5.85961
      H1     9.97334  -15.10783    5.55564
       H     3.83129  -17.01015   -2.24687
       O     4.35168  -17.55301   -1.62764
      H1     3.67089  -18.07395   -1.22650
       H     5.95679  -17.50671    6.50897
       O     6.28105  -17.92335    7.25507
      H1     6.64909  -18.76534    6.86341
       H     4.03038  -14.46330   -1.83612
       O     4.25421  -14.08242   -2.70355
      H1     5.07915  -13.60364   -2.56814
       H     6.88952  -13.67006    2.75931
       O     7.49802  -13.34847    2.14948
      H1     7.55303  -12.49691    2.54798
       H    -1.56553  -19.04128   -1.41484
       O    -2.03316  -18.25434   -1.01612
      H1    -2.84353  -18.27077   -1.53355
       H    -1.98722  -14.21643    2.81737
       O    -2.10511  -13.33756    2.44849
      H1    -2.96725  -13.11010    2.79906
       H    10.63891  -17.09492    6.84966
       O     9.71690  -17.27580    7.20217
      H1     9.30424  -16.48054    6.77562
       H     2.48340  -14.21225    7.83346
       O     2.05628  -13.32022    7.68470
      H1     2.21429  -13.33223    6.73632
       H     7.60482  -18.45859   12.81775
       O     7.70461  -17.86043   13.58310
      H1     7.01789  -18.17896   14.15871
       H    -0.54721  -15.02053    8.00614
       O    -0.96299  -15.41577    7.27189
      H1    -0.54376  -15.05091    6.47915
       H     3.07700  -11.88735    8.52303
       O     3.35322  -11.64129    9.42797
      H1     3.66597  -10.69511    9.38489
       H     1.62462  -18.96449    9.94592
       O     1.17850  -18.48874   10.68403
      H1     0.26378  -18.68829   10.53697
       H    -0.40079  -18.08538    6.24233
       O     0.08167  -18.02841    7.08737
      H1    -0.40066  -17.15855    7.34150
       H     2.88705  -16.81833   12.72342
       O     2.51540  -17.54650   13.26683
      H1     1.92082  -17.90899   12.54004
       H     7.49725  -11.31704    8.22796
       O     6.60896  -11.44970    7.81329
      H1     6.71598  -12.16030    7.11504
       H    -1.51349  -10.96262    4.70675
       O    -0.60697  -10.77062    4.39396
      H1    -0.48185   -9.87923    4.71834
       H    -2.62497  -17.42361   11.21826
       O    -2.56871  -16.83361   10.46627
      H1    -2.77931  -17.44140    9.69367
       H     2.41473  -19.87381    5.64458
       O     3.16950  -19.20802    5.71841
      H1     3.79722  -19.61845    5.10344
       H    10.70276  -17.12131    0.55665
       O    10.48946  -16.75517    1.41247
      H1    10.28001  -15.81274    1.17835
       H    -3.30579  -17.89125    7.17969
       O    -3.79717  -18.06482    8.00490
      H1    -4.29091  -17.27470    8.20984
       H     3.44990  -14.81525    1.05616
       O     4.14455  -15.32165    0.71356
      H1     3.80273  -16.13176    0.42775
       H     8.70067  -17.41072    1.34327
       O     8.06475  -18.07209    1.66339
      H1     7.25564  -17.81073    1.19767
       H     4.73482  -18.89579    8.34493
       O     4.00122  -18.62285    8.92225
      H1     4.41412  -18.49613    9.77911
       H     7.63105  -17.11337   -0.95311
       O     6.96073  -16.50791   -0.60969
      H1     6.14075  -16.92510   -0.93028
       H     2.49134  -17.50904    5.01516
       O     2.38535  -16.89201    4.29985
      H1     1.71619  -16.30220    4.60935
       H    -3.03544  -19.16522    2.62289
       O    -2.94378  -18.20367    2.83222
      H1    -2.03814  -18.00714    2.57181
       H     5.37662  -11.19433   -0.29185
       O     4.98270  -12.06379   -0.20494
      H1     5.32768  -12.41921    0.61148
       H    -2.50008  -14.54171    8.98640
       O    -2.78744  -13.61903    9.07566
      H1    -2.24686  -13.27418    9.85361
       H    -0.58988  -16.53615   10.44288
       O     0.09178  -15.95050   10.16811
      H1     0.84581  -16.56324   10.15318
       H     8.14832  -13.70318    5.43082
       O     7.41952  -13.04897    5.59446
      H1     7.61048  -12.35155    4.91530
       H     4.81056  -15.72766    2.67602
       O     4.84894  -16.29859    3.45436
      H1     3.95112  -16.22718    3.78030
       H     0.62659  -13.61064    4.61155
       O     1.15907  -12.95826    5.12206
      H1     0.69151  -12.15275    5.01908
       H     8.04664  -19.47552   10.49686
       O     7.87581  -18.59584   10.88250
      H1     6.91908  -18.48755   10.85652
       H    -4.50038  -15.94410    6.12207
       O    -5.41750  -15.86163    6.28929
      H1    -5.79575  -16.75647    6.28975
       H     5.93501  -13.60879   10.34216
       O     5.29454  -12.99280   10.70331
      H1     4.85868  -12.65088    9.90008
       H     8.63692  -15.35763   10.54016
       O     8.28684  -14.47822   10.80183
      H1     7.98991  -14.62022   11.74592
       H     2.46217  -12.69035   10.75560
       O     2.46833  -12.98674   11.72798
      H1     1.59162  -13.36106   11.81141
       H     6.17231  -13.64668    4.58722
       O     5.50690  -13.56271    3.83977
      H1     5.04733  -14.45174    3.94127
       H    -2.10273  -15.92695    0.14813
       O    -1.93860  -15.48565    0.95897
      H1    -2.32931  -14.60433    0.84946
       H    -3.51819  -14.09873    5.91371
       O    -3.28202  -14.53800    5.09914
      H1    -4.14233  -14.38582    4.61451
       H    12.28649  -18.28292   10.10865
       O    11.53183  -18.62085    9.61766
      H1    10.88177  -17.93509    9.80804
       H     6.57230  -16.44273    3.80052
       O     7.61923  -16.48665    3.84124
      H1     7.80012  -17.09274    3.08659
       H     3.66582  -16.53705    7.74058
       O     3.68857  -15.53820    7.69451
      H1     4.39585  -15.34779    8.31662
       H    11.26589  -16.94227    3.11255
       O    11.64271  -16.84573    3.98793
      H1    12.53846  -17.26671    3.94984
       H    -0.76129  -15.63642   -2.75964
       O    -0.92718  -14.72538   -2.40185
      H1    -0.29676  -14.74309   -1.61532
       H    -4.21465  -17.16998    1.96839
       O    -4.64741  -16.54104    1.33686
      H1    -3.88542  -15.89386    1.16072
       H    -1.08885  -13.17701    7.44770
       O    -0.50527  -12.44753    7.62512
      H1     0.37127  -12.87797    7.54748
       H    -2.19897  -18.76491    5.45565
       O    -2.06680  -17.83478    5.38717
      H1    -2.26526  -17.74964    4.45250
       H     5.34798  -18.73667   11.99807
       O     5.25811  -18.14778   11.26978
      H1     4.78876  -17.35684   11.63173
       H     8.88438  -14.04779    0.85578
       O     9.64743  -14.09519    0.27749
      H1     9.25694  -13.65045   -0.50492
       H     2.13153  -18.67324    1.30788
       O     2.57833  -17.83981    1.12265
      H1     3.27990  -17.79980    1.77313
       H     8.78791  -17.38701   10.24604
       O     9.61402  -16.85300   10.04434
      H1     9.65703  -16.88333    9.04297
       H     4.93340  -15.41587   12.30703
       O     4.11322  -15.76944   11.87286
      H1     3.63008  -14.90924   11.70300
       H    -0.56845  -16.25080    3.80116
       O    -0.67716  -15.27722    4.00436
      H1    -1.48977  -15.22979    4.49111
       H     0.23573  -18.37329    3.72279
       O    -0.23559  -18.06587    2.90701
      H1     0.60924  -18.05069    2.37772
       H     6.15626  -16.59713    8.53539
       O     6.05897  -15.71890    8.94392
      H1     6.96280  -15.37909    8.94651
       H     4.18210  -19.24657   -2.94471
       O     4.11502  -19.55145   -3.89677
      H1     3.68846  -18.84085   -4.40308
       H    -1.02467  -14.67261   12.83304
       O    -0.10772  -14.47897   12.71768
      H1     0.05956  -15.10585   12.04559
       H     6.20966  -15.49310   13.96667
       O     6.66813  -15.38520   13.10064
      H1     7.17017  -16.24621   13.07658

