180
frame 5 | Written by MDAnalysis XYZWriter (release 2.4.3)
       H     1.77223    3.53338   -9.02787
       O     1.56890    4.52291   -8.97897
      H1     1.35673    4.76614   -9.84966
       H     5.15881    0.52010   -3.99443
       O     5.81363    0.55253   -4.69669
      H1     6.31281   -0.24483   -4.62769
       H     6.60603    2.96661   -4.72720
       O     7.26509    2.97619   -4.01174
      H1     7.59047    2.01806   -4.04576
       H     2.77997    1.30723   -9.16430
       O     2.24335    1.99240   -9.61541
      H1     1.75758    1.40906  -10.18121
       H    -0.14150   -2.75706   -6.88371
       O     0.42481   -2.71038   -6.11067
      H1     0.50521   -3.63552   -5.80768
       H     3.81175    2.89408  -10.83809
       O     4.68378    3.02111  -11.26239
      H1     4.70400    3.94882  -11.43192
       H     2.89358    1.73774  -13.25784
       O     3.79400    1.33640  -13.19626
      H1     4.19041    1.99776  -12.60355
       H     6.83845   -5.61690  -11.31521
       O     7.12620   -4.85660  -11.75563
      H1     6.35833   -4.61829  -12.29559
       H     9.56526   -3.64760  -13.30695
       O     8.81585   -3.00973  -13.27293
      H1     9.09612   -2.33612  -13.81853
       H    -0.08517    5.40558  -11.75682
       O     0.79764    5.59266  -11.45473
      H1     1.22634    4.75274  -11.79062
       H    12.99806   -2.34541  -10.97868
       O    13.40489   -1.48557  -10.80827
      H1    14.25069   -1.74147  -10.37425
       H     9.85168   -1.94435  -11.53096
       O    10.09498   -2.12882  -10.62645
      H1     9.30033   -2.43363  -10.25211
       H     3.68358   -2.78346  -10.93377
       O     3.59086   -3.36484  -10.15222
      H1     3.50952   -2.64814   -9.47128
       H     6.89173    0.95030  -12.46214
       O     6.82529    0.77250  -13.41063
      H1     5.89697    0.95697  -13.54533
       H     8.88845    0.32291  -13.58966
       O     9.38230   -0.33616  -14.09356
      H1    10.15752    0.26922  -14.39291
       H     1.13262   -2.98426  -12.37372
       O     0.65849   -2.78074  -11.56510
      H1     1.03607   -3.46012  -11.03297
       H     8.37771   -5.30891   -6.47104
       O     8.52514   -4.56707   -7.03173
      H1     9.39232   -4.22143   -6.75780
       H     0.68279    3.04057  -13.16432
       O     1.61802    3.37087  -13.11853
      H1     1.59355    4.01469  -13.84901
       H     5.25138   -3.93514   -6.15261
       O     6.04024   -3.41276   -5.97185
      H1     6.77072   -3.82731   -6.48720
       H     2.75805   -4.30340   -5.25160
       O     3.20363   -4.59226   -6.10634
      H1     2.50351   -5.17621   -6.47658
       H     1.89026   -0.93449  -10.25482
       O     1.01574   -0.57782  -10.28933
      H1     0.68892   -1.24992  -10.95762
       H     1.90128   -2.23838   -7.32236
       O     2.88817   -2.32481   -7.39237
      H1     3.03319   -3.19599   -6.93117
       H     2.79702   -4.70832  -10.73553
       O     2.11567   -5.39793  -11.04467
      H1     1.69683   -5.58574  -10.20753
       H    11.15599    2.49013  -10.47963
       O    11.77283    2.82764  -11.12365
      H1    11.95585    3.68808  -10.76088
       H    10.29987   -0.14223  -10.46288
       O    10.19793    0.73567  -10.03155
      H1     9.28926    0.93026  -10.35874
       H     2.78949   -7.31480  -12.29989
       O     2.34767   -8.20117  -12.10140
      H1     2.26326   -8.61258  -12.97980
       H     9.38647    3.51213  -15.23206
       O     9.49319    3.18022  -16.17071
      H1     8.70935    2.71819  -16.39991
       H     2.03247    0.87652  -15.88940
       O     2.84464    1.45277  -15.88991
      H1     3.15552    1.35788  -14.98636
       H     3.80375   -0.47809  -12.67478
       O     3.75520   -1.42693  -12.41297
      H1     3.96130   -1.76939  -13.33415
       H     8.07711    5.71398  -14.28084
       O     7.34282    5.11283  -14.35341
      H1     6.93400    5.14765  -13.48588
       H     6.16208   -1.78318  -10.44043
       O     5.78172   -0.91562  -10.59572
      H1     5.27870   -1.14588  -11.43010
       H    -0.73388   -3.81966  -12.01389
       O    -1.44740   -4.32928  -12.47574
      H1    -1.12349   -5.23989  -12.74911
       H    11.48843    1.02945   -6.62494
       O    10.93117    0.51633   -5.98968
      H1    10.39223   -0.03926   -6.62210
       H    12.45569    1.31544  -11.99153
       O    13.24475    0.94144  -12.44738
      H1    13.35648    0.19248  -11.82435
       H     9.13028   -4.64058  -16.20900
       O     8.40863   -4.16803  -16.71779
      H1     7.68602   -4.24327  -16.09267
       H    10.97560   -5.96809   -8.83485
       O    10.35543   -6.33018   -8.16931
      H1     9.65677   -5.68090   -8.10056
       H     7.07826    5.32490   -9.14427
       O     7.18990    6.19180   -9.55510
      H1     7.99036    6.20506  -10.07656
       H    10.48261   -3.76705  -10.80965
       O    10.72170   -4.72095  -10.68351
      H1    10.16832   -4.94120  -11.49848
       H     5.74871    4.00447  -15.04542
       O     5.21637    3.58393  -15.69979
      H1     4.40470    3.67731  -15.24390
       H     5.33363    2.38430   -5.91557
       O     5.44355    3.34728   -5.99404
      H1     4.72360    3.64795   -6.54874
       H    -1.22667    1.20791   -8.02682
       O    -0.96735    0.34837   -8.39254
      H1    -0.40003    0.55709   -9.21018
       H     6.01359   -3.14853   -3.98207
       O     6.24912   -3.20073   -3.07714
      H1     7.18472   -3.57311   -3.08260
       H     8.52428   -5.58590  -12.61500
       O     9.42910   -5.80043  -12.69111
      H1     9.48451   -6.75216  -12.51107
       H    11.63214   -3.54485   -7.64908
       O    10.88403   -3.09277   -7.22115
      H1    10.60830   -2.40644   -7.91749
       H     3.47418   -2.75226  -14.75600
       O     4.41938   -2.51481  -14.86594
      H1     4.41078   -2.18536  -15.78336
       H     7.69028   -4.01525   -9.94578
       O     7.99490   -3.20847   -9.55042
      H1     8.00263   -3.42725   -8.57093
       H     6.58979    2.54753  -16.65694
       O     7.28525    1.88178  -16.82498
      H1     7.17297    1.40317  -16.00293
       H     7.18855    2.06556  -10.42552
       O     7.58446    1.22682  -10.74452
      H1     6.90941    0.66109  -10.37335
       H     2.18700   -0.71503   -4.40086
       O     2.13131    0.13057   -4.87714
      H1     2.30183   -0.20145   -5.76641
       H     5.62396    6.75090  -12.22644
       O     5.99236    5.88261  -11.90397
      H1     6.30813    6.13083  -11.02173
       H     5.80668   -3.33004  -14.76325
       O     6.59401   -3.92789  -14.66469
      H1     7.26177   -3.24634  -14.33969
       H     4.19528   -6.37607   -8.59472
       O     4.76781   -5.57872   -8.54422
      H1     4.15335   -5.02930   -9.04136
       H     5.79529   -6.47922   -9.56908
       O     6.31082   -7.01188  -10.14673
      H1     5.59916   -7.26865  -10.80540
       H     4.32855   -0.67494   -9.67756
       O     3.64592   -0.25840   -9.08005
      H1     3.61036   -0.92162   -8.35108
       H     5.84657    3.74013   -8.17218
       O     6.35543    3.65511   -8.95303
      H1     5.65468    3.59849   -9.64195
       H     9.06726   -0.26593   -8.35114
       O     9.18052   -0.78682   -7.56477
      H1     8.24779   -0.78785   -7.26248
       H     4.07783   -0.75740  -17.59220
       O     4.56748   -1.57307  -17.42589
      H1     4.56597   -1.96507  -18.31635
       H     9.02895   -0.91047  -16.01114
       O     8.96211   -1.30969  -16.89544
      H1     8.63396   -2.25223  -16.84031
       H     1.61859   -4.55270  -14.11950
       O     1.80777   -3.57883  -13.92888
      H1     1.37836   -3.12341  -14.63058
       H     4.30924    6.01210   -6.69341
       O     3.91996    5.33614   -7.25937
      H1     2.98020    5.58600   -7.12309

