180
frame 1 | Written by MDAnalysis XYZWriter (release 2.4.3)
       H   -16.86257    6.39886   -4.86670
       O   -16.73199    6.51110   -3.90659
      H1   -16.00626    5.92717   -3.94103
       H   -13.38870    8.37728   -2.49037
       O   -12.40913    8.55259   -2.46907
      H1   -12.08991    8.02090   -3.21440
       H   -11.37982    1.31394   -3.69258
       O   -11.17495    0.69446   -2.93103
      H1   -11.58217   -0.12829   -3.24352
       H   -14.45174    1.09100    2.42425
       O   -14.20368    1.52683    3.23426
      H1   -14.73607    2.30517    3.31847
       H   -14.98201    1.66623    0.01696
       O   -15.21135    0.74067   -0.02911
      H1   -16.03406    0.74449    0.49287
       H   -14.92112   -0.01592   -1.87762
       O   -15.01875   -0.36246   -2.81266
      H1   -15.39356   -1.22041   -2.61521
       H   -11.55348   10.23152    0.98212
       O   -12.11662   10.85135    1.47512
      H1   -12.64575   11.21632    0.74169
       H   -10.75951    1.99830    2.08375
       O   -11.14762    2.19193    2.98327
      H1   -12.09934    2.01662    2.73446
       H   -14.51859    6.85134   -4.79565
       O   -14.25234    5.93612   -4.54536
      H1   -13.99723    5.64675   -5.43196
       H   -15.19114   -0.28161   -4.77751
       O   -15.10031   -0.36430   -5.74082
      H1   -14.17252   -0.71077   -5.91096
       H   -10.85583    7.77420    0.85357
       O   -10.90382    8.58506    0.30142
      H1   -11.68076    8.38001   -0.18295
       H   -15.98234    7.36851    4.82709
       O   -15.52395    7.29786    5.70207
      H1   -15.30880    8.21147    6.02268
       H   -13.31800   -0.10066    0.31539
       O   -13.16821   -1.04214    0.10763
      H1   -12.33652   -1.01452   -0.36499
       H   -10.71005    6.88330    3.23914
       O   -10.80210    6.63398    2.29374
      H1   -11.72617    6.23326    2.33434
       H   -17.82388    9.33509    3.64663
       O   -18.65114    9.49245    3.16764
      H1   -18.50297    9.05904    2.33885
       H   -15.87066    9.37212   -2.65974
       O   -16.09786    8.56580   -2.18128
      H1   -16.18728    7.85379   -2.87514
       H   -17.89516    0.02046    1.47172
       O   -17.26222    0.28743    2.18453
      H1   -16.82465   -0.56553    2.29715
       H   -16.12071   -4.59541   -0.11725
       O   -15.79463   -3.69061   -0.35194
      H1   -15.59481   -3.15955    0.44859
       H   -12.44955    0.60631    5.06195
       O   -12.31193    0.51629    6.04901
      H1   -11.88505   -0.36635    6.09291
       H    -8.86202    6.08207    1.86832
       O    -7.99431    5.96315    1.48110
      H1    -7.81995    5.04040    1.66415
       H   -14.86258   -1.27018    1.20886
       O   -15.44389   -2.00660    1.59304
      H1   -14.97682   -2.34109    2.40603
       H   -17.92220    2.57215    1.81691
       O   -18.14386    3.28886    1.20738
      H1   -18.16060    2.94014    0.30349
       H   -13.40813    3.18605   -4.47442
       O   -12.74299    3.02035   -3.83793
      H1   -11.94162    3.38911   -4.16200
       H   -15.03778    8.78978   -0.77590
       O   -14.27873    9.04449   -0.21497
      H1   -14.76257    9.40940    0.53763
       H   -15.82729    2.83036   -5.58359
       O   -16.65766    2.68348   -5.99541
      H1   -17.15661    2.05989   -5.52461
       H    -9.84343    0.55872    0.35279
       O   -10.01499    1.53428    0.30089
      H1    -9.13133    1.92555    0.33214
       H   -18.68100   -1.48604   -1.04234
       O   -17.80394   -1.37744   -1.30354
      H1   -17.43077   -2.11964   -0.79383
       H   -16.08224    4.20570    0.95629
       O   -15.15415    4.05719    0.89565
      H1   -14.79551    4.93158    0.81982
       H   -19.03063    0.26203    5.49232
       O   -18.83728    0.94471    4.82055
      H1   -17.87918    0.79800    4.73227
       H   -16.31264    6.36366    6.94287
       O   -16.47789    5.64327    7.66415
      H1   -15.56812    5.51234    7.96658
       H   -12.57100    1.86056   -1.54719
       O   -12.58189    1.93247   -0.61462
      H1   -11.65612    1.73981   -0.37233
       H   -11.85979    9.76470    3.09942
       O   -12.10828    9.39876    3.95977
      H1   -11.29223    9.00014    4.28296
       H   -15.71481   11.41653    0.96731
       O   -15.78864   10.56298    1.40065
      H1   -15.79528   10.79937    2.34306
       H    -8.93369    3.33126   -1.57402
       O    -8.97632    4.25227   -1.28373
      H1    -9.62498    4.71205   -1.89961
       H   -16.19047    3.97497    3.86796
       O   -15.27651    3.99370    3.55607
      H1   -15.33616    4.11934    2.56135
       H   -12.40592   -2.13013    3.13171
       O   -11.73359   -1.70211    2.53246
      H1   -12.21083   -1.59063    1.73579
       H   -18.03469    8.85143   -0.00871
       O   -18.47495    9.62800    0.35571
      H1   -17.69227   10.02741    0.79150
       H   -15.98151    1.50746   -3.09682
       O   -16.21070    2.41820   -2.99844
      H1   -17.13464    2.53605   -3.04997
       H   -15.77785    6.06816    2.88082
       O   -16.47790    6.66063    2.99351
      H1   -16.66902    6.89810    2.11892
       H   -10.03589    3.52953    4.15128
       O    -9.64861    3.90294    4.94572
      H1    -9.98958    4.76673    5.10267
       H   -16.92918    6.40615   -0.54621
       O   -17.11595    7.07924    0.13021
      H1   -17.97779    6.71529    0.42318
       H   -17.65192   -0.79420   -4.92449
       O   -17.65071   -0.11583   -4.22971
      H1   -17.13242   -0.52080   -3.50666
       H   -10.76274    6.88103    6.12008
       O   -10.78132    6.37498    5.30993
      H1   -11.73112    6.22553    5.27614
       H   -13.32804    6.20148   -0.05141
       O   -13.57025    6.43302    0.87795
      H1   -13.82659    7.38194    0.73820
       H   -13.88603    4.36207    7.45455
       O   -14.21280    4.45238    8.37622
      H1   -13.87162    3.63510    8.76794
       H   -19.42800    2.18127   -4.04393
       O   -19.87155    1.33041   -4.14970
      H1   -19.16711    0.70021   -4.09000
       H   -14.31569    6.12146    5.74243
       O   -13.51900    5.55915    5.61568
      H1   -13.73851    5.21159    4.71055
       H   -18.09346    8.04030   -3.83231
       O   -18.94567    8.45664   -4.23914
      H1   -18.82286    9.42016   -3.87636
       H   -16.74603    4.08844    7.20310
       O   -17.18012    3.18245    7.05192
      H1   -18.08048    3.38080    7.29048
       H   -12.62697    3.51436   -1.16606
       O   -12.50493    4.38015   -1.49894
      H1   -12.98004    4.39332   -2.30812
       H    -9.85518    0.81875    3.56377
       O    -9.06046    0.41623    3.92623
      H1    -9.25819   -0.54325    3.83138
       H   -12.13271   -2.09653   -2.97028
       O   -12.35147   -1.46306   -3.72374
      H1   -13.27371   -1.29055   -3.41314
       H   -15.60292    4.42160   -0.88643
       O   -16.10854    4.87210   -1.59169
      H1   -15.92904    4.12346   -2.16007
       H   -17.79865    0.38219   -0.90308
       O   -18.25839    1.04706   -0.36726
      H1   -19.17566    0.80403   -0.43480
       H   -11.31904    5.49093   -2.20377
       O   -10.66329    5.92217   -2.84114
      H1   -10.37252    6.70228   -2.28346
       H   -13.52086   10.59558   -0.84921
       O   -13.45438   11.55432   -0.88008
      H1   -12.55852   11.67384   -1.29821
       H   -18.89559    3.93609   -2.53241
       O   -18.45217    3.92874   -3.34083
      H1   -18.32884    4.93319   -3.40173
       H   -17.78139    3.49020    5.39933
       O   -17.82587    3.78401    4.46561
      H1   -18.22780    4.61956    4.52568
       H   -15.99226   11.54778    4.18238
       O   -16.28343   10.58377    4.14402
      H1   -15.43328   10.17058    4.42948
       H   -15.41083    0.54260    4.29861
       O   -16.13062    0.45157    5.05535
      H1   -15.81437    1.12649    5.69526

