180
frame 10 | Written by MDAnalysis XYZWriter (release 2.4.3)
       H    -3.32067    4.58016   12.60245
       O    -3.42130    3.64775   12.25649
      H1    -4.16241    3.47259   12.90937
       H     5.75874    2.58837   11.43561
       O     5.33350    1.72064   11.63058
      H1     5.13738    1.84644   12.57433
       H    -3.06655   -3.18739   11.93523
       O    -3.50828   -2.47742   12.37514
      H1    -2.84299   -1.83057   12.70601
       H     2.99934    3.66040    9.84047
       O     3.15473    4.56369   10.18693
      H1     2.38769    4.66461   10.78716
       H     8.49798    2.34138   16.88914
       O     8.43202    2.00534   15.92819
      H1     7.50022    2.23210   15.66012
       H     4.68645   -1.69241   12.70152
       O     4.66815   -2.32202   11.95377
      H1     5.14037   -1.88141   11.21381
       H     5.83848    5.13515   17.93491
       O     5.50990    5.44229   17.02232
      H1     4.89983    4.75379   16.72375
       H    -1.36131    3.23905   13.59324
       O    -1.13900    3.12869   14.50968
      H1    -0.23808    2.76166   14.50359
       H     3.23133    6.43157    6.95989
       O     3.61358    6.09821    6.15293
      H1     4.02616    5.25552    6.43396
       H    -1.60057    3.07080    9.69547
       O    -1.88175    3.15424    8.74403
      H1    -2.81788    3.04323    8.78452
       H     5.92336    3.71759    6.35999
       O     5.50582    3.99661    7.18607
      H1     6.21195    4.42755    7.68040
       H     3.76700    6.41248   14.24836
       O     4.14178    7.20876   14.59437
      H1     3.30705    7.66340   14.77367
       H    -1.36719   -0.58261   12.72467
       O    -1.63471   -0.87954   13.61027
      H1    -2.07727   -0.15416   14.01119
       H     1.80231    5.39071   13.50414
       O     2.61804    4.97675   13.83912
      H1     2.25028    4.61122   14.66480
       H    -1.88066    6.38586   10.01490
       O    -1.79820    6.45085   10.99443
      H1    -2.25562    7.22662   11.25178
       H     5.22714   -0.71316   17.11523
       O     5.41578   -1.05119   16.24325
      H1     5.19805   -2.00700   16.03428
       H     1.03303    1.04848   15.99168
       O     1.11479    1.97649   15.73604
      H1     0.76601    2.52995   16.43313
       H     1.97656    0.96788   10.15602
       O     1.69562    0.25217   10.76269
      H1     2.60255   -0.08503   11.06024
       H     0.91128   -3.20694   14.66984
       O    -0.06070   -2.97651   14.60438
      H1    -0.18191   -2.04040   14.42592
       H     6.85814    6.29019   16.14200
       O     7.55874    6.58545   15.57084
      H1     7.28113    6.20744   14.70744
       H     5.28768    7.39402   13.14678
       O     5.58930    6.96966   12.32526
      H1     6.27524    7.48169   11.82085
       H    -0.19353   -2.61691   10.95795
       O     0.36991   -2.66136   11.75491
      H1    -0.16983   -3.04220   12.42215
       H     3.25575   -0.16564   13.80225
       O     4.19954   -0.12782   13.95884
      H1     4.31385   -0.31539   14.90287
       H     2.65807   -4.68972   11.21038
       O     1.67699   -4.95218   11.18167
      H1     1.28647   -4.11178   11.44186
       H     7.39546    6.18549    7.46538
       O     6.98935    5.81207    8.25461
      H1     6.13659    6.22047    8.39902
       H    -1.85699    4.80673    8.28125
       O    -1.93253    5.78875    8.24433
      H1    -1.37798    6.11491    7.48894
       H     1.68262   -0.49681   15.36184
       O     1.24061   -0.59423   16.22608
      H1     1.96729   -0.65836   16.88311
       H    -2.16352   -2.75930    9.44683
       O    -1.22479   -2.55970    9.65186
      H1    -0.84458   -2.85626    8.82420
       H     6.37555    1.40499   14.30463
       O     6.09304    2.31253   14.41796
      H1     5.24683    2.33921   14.88331
       H     3.54291    3.04910   19.55201
       O     4.12663    2.88577   18.81276
      H1     4.69351    2.15677   19.11899
       H     6.28872    4.17681   14.09856
       O     6.67232    4.87677   13.53678
      H1     6.09367    5.61450   13.23545
       H     1.16503   -0.70398    6.56082
       O     0.31941   -0.74300    6.12900
      H1     0.19281    0.09660    5.72291
       H     8.57319   -1.09941    9.52321
       O     8.21157   -1.16656   10.46113
      H1     8.26938   -2.08783   10.77520
       H     6.30255   -0.93518    9.72283
       O     5.63493   -0.23643    9.76891
      H1     5.86811    0.37134   10.52058
       H    -1.74200    4.77733   15.63973
       O    -2.42947    5.23321   16.21353
      H1    -2.03548    5.99421   16.64615
       H     1.94578    7.75435   10.40641
       O     1.87339    8.11624   11.33068
      H1     1.60600    7.33891   11.81055
       H     4.88993   -3.98471   11.72871
       O     4.70062   -4.94050   11.66615
      H1     5.37201   -5.30947   11.02558
       H     0.98209    6.56818   16.20901
       O     0.59155    7.13834   15.55185
      H1     1.18245    7.89387   15.34154
       H    -1.11628    2.66264   18.35866
       O    -0.16425    2.76545   18.28694
      H1     0.22674    1.90344   18.57548
       H     1.84631    5.36751   17.79185
       O     1.03191    5.19908   17.24433
      H1     0.42636    4.81824   17.89605
       H     3.15368   -0.29989    7.39600
       O     2.40525   -0.82790    7.64355
      H1     1.76452   -0.22198    8.09917
       H     2.99228    2.47385   15.91248
       O     3.86783    2.79795   16.15889
      H1     3.94258    2.83504   17.06940
       H    -0.19714    5.99510   12.12659
       O     0.55322    6.13208   12.74860
      H1     0.15148    6.51187   13.59453
       H    -0.35147    2.23305    7.84546
       O     0.47418    2.25271    7.32011
      H1     0.62185    3.17273    7.10028
       H     3.51723   -3.69925   14.69872
       O     2.57329   -3.89402   14.46725
      H1     2.44823   -4.86542   14.55640
       H     7.10811   -0.82969   13.43493
       O     7.30780   -0.30596   14.18824
      H1     6.92158   -0.81195   14.87794
       H     3.57649    8.94603   11.87511
       O     4.20852    9.57311   11.68071
      H1     4.85003    9.60272   12.42932
       H     1.87230    2.23591    8.30609
       O     2.63943    2.19918    8.85957
      H1     3.36946    2.06709    8.28612
       H    -1.14052   -0.67189   10.68824
       O    -1.06380    0.05861   11.26493
      H1    -0.12555    0.23215   11.10662
       H     1.43044   -1.23508   12.81695
       O     1.56421   -0.50630   13.44107
      H1     1.47536    0.27028   12.86007
       H     3.30182    7.38079    8.49937
       O     2.39865    7.13091    8.25603
      H1     2.13068    7.72951    7.55509
       H     9.77512    5.07144   13.04251
       O     9.45435    4.78655   13.93051
      H1     8.51718    4.67010   13.80105
       H     4.23441    5.77032    9.68098
       O     4.70770    6.63121    9.51771
      H1     5.02625    6.93708   10.40460
       H    -2.44895    1.81783   14.94362
       O    -3.03094    0.98483   14.78377
      H1    -3.11138    0.57969   15.69778
       H     5.29862    0.87001    8.45435
       O     5.06016    1.34360    7.62689
      H1     5.22732    2.26265    7.65453
       H     3.55187    2.20723   12.00494
       O     2.70836    2.34223   12.46592
      H1     2.70079    3.32164   12.61540
       H     8.94079    0.14477   14.34953
       O     9.88440    0.30959   14.52431
      H1     9.83215    1.19037   14.90968
       H    -1.96846    3.45486   11.46609
       O    -1.16928    2.92543   11.32177
      H1    -1.31166    2.01947   11.59509
       H     7.73745    2.56557    9.58640
       O     8.31337    1.86450    9.19899
      H1     7.95536    1.06485    9.62069
       H     6.81606    4.81932   10.33265
       O     7.22170    4.05725   10.77593
      H1     7.07162    4.25967   11.71669

