180
frame 0 | Written by MDAnalysis XYZWriter (release 2.4.3)
       H   -18.46912   -7.61891   -3.33213
       O   -17.98784   -6.94984   -2.75781
      H1   -17.26581   -7.48230   -2.42258
       H   -14.57173   -4.06580   -2.83909
       O   -15.21549   -3.36769   -2.54173
      H1   -15.51393   -3.72821   -1.70672
       H   -12.43099   -8.68346   -2.75631
       O   -12.45553   -9.52972   -3.19713
      H1   -11.52603   -9.81482   -3.10544
       H   -17.82648   -6.33769   -0.50741
       O   -17.76725   -5.64787    0.14669
      H1   -17.35155   -6.13966    0.90143
       H   -14.56457  -12.45761   -8.81447
       O   -14.80896  -12.74914   -7.88156
      H1   -14.63056  -13.67203   -7.91741
       H   -11.71998   -9.99617  -11.76858
       O   -12.36427  -10.07772  -12.48794
      H1   -13.10896  -10.46650  -12.01709
       H   -19.66657  -12.91352   -1.03753
       O   -18.91574  -13.44661   -1.26770
      H1   -19.17490  -13.76810   -2.18088
       H   -10.02838   -8.08833   -9.65902
       O   -10.51556   -7.58836   -9.02924
      H1   -11.13341   -7.20074   -9.59457
       H   -12.20045   -4.11743   -8.72764
       O   -12.06172   -3.21411   -9.07545
      H1   -12.30805   -2.63532   -8.31374
       H   -11.61854   -7.55897  -12.29964
       O   -12.17731   -7.13918  -11.59975
      H1   -13.07928   -7.24139  -11.89786
       H   -12.73065  -12.44941   -9.13823
       O   -12.67803  -13.09493   -9.87179
      H1   -12.08657  -13.74059   -9.53131
       H   -13.92158   -4.80031   -7.64239
       O   -14.27409   -4.50443   -6.82065
      H1   -14.73537   -3.70672   -7.18246
       H   -18.90412  -11.55956   -7.02608
       O   -18.56248  -11.82227   -6.10128
      H1   -17.98780  -12.58452   -6.39345
       H   -10.06114   -6.62788   -7.38228
       O    -9.64366   -6.15619   -6.64514
      H1    -9.28094   -6.78007   -5.97937
       H   -16.32152   -6.91766   -8.50456
       O   -16.62180   -7.37900   -9.31427
      H1   -16.24326   -8.23951   -9.04867
       H   -16.20341  -11.45389   -0.74805
       O   -16.48243  -12.29991   -0.42083
      H1   -17.25901  -12.46732   -0.99608
       H   -18.61659   -9.26934   -4.41073
       O   -19.35711   -8.74524   -4.04506
      H1   -20.00960   -8.78500   -4.78400
       H   -13.07155  -10.42508   -1.08775
       O   -13.32684  -10.72887   -0.20441
      H1   -13.23429  -11.68771   -0.26928
       H    -9.83626   -9.09971   -7.95752
       O   -10.00286   -9.92075   -7.51694
      H1    -9.43425  -10.54184   -7.90472
       H   -16.17919   -5.30789   -6.76249
       O   -16.61978   -6.09681   -7.00711
      H1   -17.49242   -6.00993   -6.50436
       H   -17.50188   -2.40342   -6.66830
       O   -18.22593   -2.31266   -6.00314
      H1   -17.82975   -2.75177   -5.21862
       H   -12.45467   -6.85523   -5.23254
       O   -12.03237   -7.71356   -5.31383
      H1   -12.43997   -8.30801   -4.69750
       H   -16.00493  -13.65975  -13.27278
       O   -15.61407  -13.39630  -12.41119
      H1   -14.85300  -14.06737  -12.39224
       H   -17.71410   -3.73606  -12.37431
       O   -17.34569   -3.85490  -11.49067
      H1   -16.42110   -4.05103  -11.58197
       H   -16.12795   -4.85541    0.22245
       O   -15.42126   -4.22087    0.07573
      H1   -15.73033   -3.45043    0.53737
       H   -16.66839   -9.11985  -13.22944
       O   -15.76587   -8.96597  -13.58842
      H1   -15.53346   -8.23850  -13.00525
       H   -15.44037  -10.32834   -9.62780
       O   -15.68871   -9.74338   -8.90177
      H1   -14.87234   -9.32368   -8.67760
       H   -12.77593  -10.54816   -7.42916
       O   -12.44502  -10.55087   -8.33720
      H1   -11.52548  -10.43745   -8.19305
       H   -15.28259  -11.83111  -11.96291
       O   -14.97370  -10.99662  -11.55113
      H1   -15.37693  -10.35277  -12.19348
       H   -18.64642  -15.34372   -5.67220
       O   -17.68770  -14.99165   -5.63133
      H1   -17.17286  -15.80883   -5.50264
       H   -13.76311  -14.09179    0.04944
       O   -14.06303  -13.33853   -0.47546
      H1   -14.95513  -12.99698   -0.23840
       H   -16.09032   -2.18148   -8.55065
       O   -16.18367   -2.20116   -7.60597
      H1   -15.64477   -1.42299   -7.24748
       H   -18.92789  -12.40958   -9.34760
       O   -19.30505  -11.64603   -9.81809
      H1   -19.19148  -10.89433   -9.19196
       H   -10.36475  -12.52659   -5.07681
       O   -10.15637  -12.36682   -6.00323
      H1   -10.95152  -11.96139   -6.33179
       H   -19.64951   -9.21518   -7.57901
       O   -18.91783   -9.14794   -8.17585
      H1   -19.01150   -8.25906   -8.65519
       H   -17.27904  -14.55959   -7.91109
       O   -17.36890  -13.70736   -8.30399
      H1   -16.62916  -13.12312   -8.02195
       H   -17.52864  -10.30022    2.11918
       O   -16.79566  -10.37224    1.52235
      H1   -16.77169  -11.32934    1.29515
       H   -10.47019   -8.22962   -5.14487
       O    -9.55908   -8.58698   -5.18984
      H1    -9.60820   -9.26445   -5.92542
       H   -12.56270   -2.73645   -6.16899
       O   -12.76666   -2.00076   -6.75082
      H1   -11.88419   -1.55510   -6.63991
       H   -18.57159  -16.97900   -7.97332
       O   -18.07212  -17.78128   -7.78875
      H1   -17.56350  -17.40445   -7.03595
       H   -15.00910  -14.71264   -3.37590
       O   -14.75866  -15.26752   -2.57635
      H1   -14.45868  -14.55608   -1.99443
       H   -14.53592   -3.55619  -11.83181
       O   -14.89263   -4.31739  -12.33182
      H1   -15.03637   -4.06498  -13.27504
       H   -18.43941   -8.91588   -0.37680
       O   -17.51803   -9.05433   -0.68829
      H1   -17.13427   -9.60760    0.04037
       H   -19.56349   -4.92572   -5.81938
       O   -19.13570   -5.79573   -5.92370
      H1   -19.09850   -6.06126   -4.98025
       H   -18.79650  -11.44923  -12.72050
       O   -17.87047  -11.16074  -12.69043
      H1   -17.76708  -11.24712  -11.75092
       H   -13.70518   -4.77460   -4.91676
       O   -13.27594   -4.84610   -3.98113
      H1   -12.55894   -4.18332   -3.95922
       H   -16.84962  -14.16423  -11.24128
       O   -17.48156  -14.80997  -10.87949
      H1   -17.57584  -14.59476   -9.95754
       H   -13.34598   -8.20599   -7.06738
       O   -13.53772   -8.18938   -8.01446
      H1   -12.95517   -8.93618   -8.24380
       H   -12.98553   -6.62987   -2.84874
       O   -12.84611   -7.09062   -2.01877
      H1   -12.76564   -6.32722   -1.42818
       H   -15.65415  -11.57778   -3.32657
       O   -15.38216  -10.82610   -2.77512
      H1   -14.40578  -10.82011   -2.86292
       H   -14.50768  -10.80004   -6.30844
       O   -13.66446  -10.61033   -5.84372
      H1   -14.06020   -9.93117   -5.26135
       H   -17.74876  -10.37613   -5.90005
       O   -17.46859   -9.44681   -5.65407
      H1   -17.76742   -8.97533   -6.43248
       H   -18.55558   -2.35328  -10.49316
       O   -19.12684   -2.00139   -9.81666
      H1   -19.33293   -2.94881   -9.47766
       H   -17.52223   -5.02377   -3.78895
       O   -17.42002   -4.07191   -3.86304
      H1   -16.72640   -3.79411   -3.22552
       H   -12.89318   -5.98571  -10.03601
       O   -12.99121   -5.75382   -9.13767
      H1   -13.17910   -6.59968   -8.68187
       H   -13.95475  -16.45050   -7.22756
       O   -14.40177  -15.70976   -7.71725
      H1   -15.00147  -16.18301   -8.27912
       H   -15.15308   -9.13738   -3.57640
       O   -15.03901   -8.45120   -4.25476
      H1   -15.84001   -8.41747   -4.76150
       H   -15.47855   -7.08838  -10.68101
       O   -15.00880   -7.11070  -11.54083
      H1   -15.19823   -6.16196  -11.80206
       H   -16.29839  -13.46921   -4.90370
       O   -15.51125  -13.17157   -4.41329
      H1   -15.01682  -12.88856   -5.19259
       H   -19.46350   -6.69003  -10.38327
       O   -19.28397   -6.79099   -9.39577
      H1   -18.25773   -6.87055   -9.42225

