180
frame 3 | Written by MDAnalysis XYZWriter (release 2.4.3)
       H    14.08955  -12.92769    4.43287
       O    13.40935  -12.67165    3.78926
      H1    12.70072  -13.30779    3.85709
       H     8.65581   -1.36667    0.02576
       O     8.24652   -2.20985    0.08276
      H1     9.01889   -2.80677    0.12543
       H    12.46055   -6.43833   10.11577
       O    11.48859   -6.60716   10.09780
      H1    11.02344   -5.75877   10.15672
       H     3.76033   -8.47589    2.98115
       O     4.52160   -8.05133    2.52743
      H1     4.03788   -7.36574    2.07329
       H     6.27561  -10.18726    8.66036
       O     5.95835  -10.44106    9.54642
      H1     6.73137  -10.26060   10.14546
       H    10.63757  -13.78318    3.40679
       O    11.18161  -14.28564    4.04033
      H1    11.38754  -15.10943    3.53073
       H    11.67363   -2.16215   -0.23780
       O    11.52586   -2.02732   -1.24841
      H1    11.92364   -2.80977   -1.62354
       H     8.82281   -9.94754    6.41819
       O     8.38503   -9.52070    5.72478
      H1     8.54578  -10.08795    4.90526
       H    13.67968   -4.64549    3.46784
       O    13.68560   -5.04008    4.43957
      H1    14.50252   -5.60213    4.46121
       H    13.14782  -10.47478   -0.35559
       O    12.71345   -9.67596   -0.52701
      H1    12.01455   -9.98591   -1.19850
       H    17.26948  -10.29075    0.82034
       O    16.89134   -9.40594    0.90543
      H1    16.34457   -9.32779    1.68929
       H     5.29563   -6.48118    3.73493
       O     5.67990   -6.10495    4.48829
      H1     5.25410   -5.20424    4.53619
       H     7.37550   -6.38660    5.16606
       O     8.02235   -6.81955    5.73717
      H1     7.87966   -7.73781    5.64096
       H    13.57155  -12.43239    1.65199
       O    13.77856  -12.09745    0.75330
      H1    14.65511  -12.51406    0.57761
       H     8.58059  -14.52789    5.86247
       O     9.49273  -14.48068    6.23252
      H1    10.03535  -14.20518    5.50582
       H    17.96632  -11.56657    3.51844
       O    17.01110  -11.59785    3.39615
      H1    16.63390  -10.73950    3.62583
       H     6.49467  -10.48795   -0.98470
       O     7.45205  -10.65665   -1.11455
      H1     7.48536  -10.52731   -2.04737
       H     7.18850   -4.74735    3.18581
       O     7.67538   -4.46564    2.43342
      H1     7.20394   -3.77385    1.98742
       H    10.74272   -4.57965    6.93874
       O    11.55909   -4.93947    7.24092
      H1    11.93377   -5.57168    6.59972
       H    13.47444   -9.25771    6.69956
       O    13.31657  -10.19474    6.84973
      H1    14.12447  -10.66815    6.94703
       H    12.91712   -3.96034    7.80109
       O    13.76564   -3.53807    8.18467
      H1    14.22890   -3.29933    7.39410
       H     5.66621   -9.47006    2.47266
       O     5.80619  -10.41483    2.38948
      H1     6.72398  -10.58542    2.16584
       H    14.67621   -9.49837    3.54932
       O    15.43457   -9.10838    3.01137
      H1    15.67832   -8.35602    3.54611
       H     8.00235  -13.30242    2.71096
       O     7.18551  -13.33820    3.23158
      H1     6.65250  -13.89728    2.58459
       H     9.89679   -0.74827    2.24606
       O     9.17559   -0.43693    2.87699
      H1     8.45355   -0.00786    2.32650
       H    12.95608  -11.08202    3.75386
       O    12.84559  -10.09152    3.91159
      H1    12.65998  -10.03453    4.86025
       H     8.02061   -9.06828    1.33505
       O     8.32486  -10.00665    1.23216
      H1     8.15533  -10.26058    0.30055
       H    16.94250   -6.54267    4.54087
       O    15.99070   -6.64182    4.77850
      H1    15.99796   -7.18458    5.54869
       H    10.62222   -4.88533    0.48570
       O     9.82880   -4.85750   -0.07890
      H1    10.21252   -4.91906   -1.01175
       H    14.06763   -3.66653    5.15503
       O    14.45165   -2.82528    5.46119
      H1    15.33384   -2.85912    5.09281
       H    14.54826   -8.24515    9.57397
       O    14.56108   -9.20386    9.46544
      H1    13.83821   -9.42798    8.83871
       H    10.10502   -8.09142    4.42978
       O    10.66709   -7.45086    3.99494
      H1    10.85411   -7.76488    3.08169
       H     7.35794   -4.97250    8.32047
       O     8.21025   -5.29027    8.03548
      H1     7.96770   -5.85746    7.34589
       H    11.84592   -1.79595    2.36807
       O    11.62063   -2.06438    1.46484
      H1    11.79533   -3.04813    1.60522
       H    13.93950   -9.19839   -1.64842
       O    14.50037   -8.99218   -2.42424
      H1    15.14165   -8.32575   -2.23033
       H     5.15632   -9.15515    6.36731
       O     5.75401   -9.81710    6.71440
      H1     6.67437   -9.54737    6.49855
       H     9.92344  -10.17131    2.45808
       O    10.25029  -10.41109    3.33560
      H1    11.22183  -10.18622    3.36322
       H     8.23164   -7.26193   -1.00570
       O     8.60841   -7.03027   -1.87509
      H1     8.86640   -7.94032   -2.25808
       H    15.99552   -3.75910    0.57745
       O    15.17549   -3.39189    0.93132
      H1    14.62937   -3.60032    0.21197
       H    14.72531   -5.20180    7.75417
       O    15.60103   -5.54966    8.07481
      H1    15.79394   -6.37221    7.59304
       H    12.69420   -5.52437    1.67271
       O    12.09129   -4.78151    1.93729
      H1    11.70110   -5.00855    2.78673
       H     9.31141   -4.58227    3.26194
       O    10.08432   -4.68782    3.83357
      H1    10.18935   -5.70993    3.95898
       H    13.56236   -1.40019    4.66510
       O    13.05653   -1.14521    3.87952
      H1    12.52176   -0.41172    4.19419
       H    12.38802   -7.44279    6.46293
       O    13.21903   -7.38034    5.91544
      H1    12.86470   -7.00648    5.08958
       H    14.04845   -7.51957    1.91057
       O    13.86580   -6.83073    1.31264
      H1    14.49266   -6.85552    0.60285
       H     4.50959   -7.05655    5.47907
       O     3.95631   -7.75632    5.90554
      H1     3.30075   -7.86847    5.23617
       H    11.76376   -0.45858    7.17037
       O    10.91728   -0.79589    6.87708
      H1    11.13186   -1.70145    6.67638
       H     8.21188   -2.37460    5.60664
       O     7.69539   -1.59859    5.26759
      H1     8.12495   -1.24704    4.50408
       H    11.46654   -5.84740   -2.20753
       O    11.30892   -4.93319   -2.42340
      H1    10.99432   -5.00310   -3.33907
       H    12.02435   -7.66893    1.27755
       O    11.15421   -8.14175    1.39567
      H1    11.23046   -8.88786    0.77035
       H    10.16329   -7.44302    7.40767
       O    10.98044   -7.73727    7.71827
      H1    11.23458   -7.11393    8.44070
       H    16.41158   -8.40748    8.23311
       O    16.42913   -7.98885    7.33717
      H1    17.32601   -7.68529    7.34199
       H     9.19709   -6.80412    0.81177
       O     8.33510   -6.91146    1.26135
      H1     8.05210   -5.99116    1.32625
       H    16.60043   -6.92340   -0.61352
       O    15.84190   -7.45178   -0.71197
      H1    16.08752   -8.26063   -0.27605
       H     8.86234   -4.00012    6.46103
       O     9.37493   -3.34105    6.01548
      H1     9.75973   -3.78820    5.23309
       H     9.88055  -11.95327    2.51449
       O     9.73652  -12.89591    2.27996
      H1     9.26370  -12.99805    1.44701
       H    10.98134  -11.67997   -1.32433
       O    11.10608  -11.17312   -2.12732
      H1    11.90415  -11.55381   -2.58151
       H     9.34308   -3.98979    9.25594
       O     9.90154   -4.09437   10.04588
      H1     9.49169   -3.55927   10.81667
       H    10.22069  -12.72182    9.09721
       O    10.58408  -12.60107    8.21150
      H1     9.95351  -13.03304    7.66554
       H    10.02411   -9.11231    7.88908
       O     9.53989   -9.94519    8.02013
      H1    10.16969  -10.70051    8.10104

