180
frame 1 | Written by MDAnalysis XYZWriter (release 2.4.3)
       H     4.93992    0.37281   -6.01830
       O     5.18313    0.24341   -6.97897
      H1     5.93264   -0.36897   -6.83973
       H    14.68805   -3.99157   -5.76697
       O    14.53892   -4.78631   -6.30385
      H1    13.83944   -5.32550   -5.97706
       H    12.97630    2.99414   -6.33591
       O    13.05149    2.20974   -5.78725
      H1    12.83761    1.58972   -6.48716
       H     4.68315    0.80507  -13.31982
       O     4.04883    0.49255  -12.63595
      H1     3.77901    1.35979  -12.19806
       H     6.35666   -6.56258  -11.40083
       O     7.26752   -6.32374  -11.74761
      H1     7.05179   -5.70043  -12.46352
       H     9.82167   -2.37052  -13.61783
       O     8.91788   -2.27430  -13.32636
      H1     8.46268   -1.78426  -14.04222
       H     9.32363   -4.42913   -5.69678
       O     9.26631   -5.10378   -5.02721
      H1     8.54183   -4.75503   -4.47442
       H    11.90977   -1.39514  -13.73122
       O    11.52299   -2.25948  -13.67376
      H1    11.88426   -2.65415  -14.48808
       H    14.45293   -1.77101  -11.11344
       O    14.69739   -0.90348  -10.81800
      H1    14.35815   -0.82773   -9.88851
       H     9.44450   -2.06276  -11.46596
       O     9.48344   -2.41277  -10.56579
      H1     8.70102   -3.08394  -10.61954
       H    13.56671   -4.42344   -8.04472
       O    13.24348   -4.14640   -8.97021
      H1    12.46487   -4.75119   -9.01431
       H     4.54660   -2.93950   -9.23838
       O     4.07158   -3.51773   -8.60657
      H1     3.75947   -2.85823   -7.97112
       H     6.37378    2.41898  -13.92956
       O     6.26945    1.46236  -14.01713
      H1     6.50373    1.14160  -13.14454
       H     7.55079    0.05332  -15.03598
       O     8.30695   -0.08849  -15.62256
      H1     9.03801    0.40884  -15.16295
       H    13.87456   -3.75095  -10.73972
       O    14.03233   -3.35518  -11.61052
      H1    13.10985   -3.18122  -11.91517
       H     7.11223   -5.67401   -7.36790
       O     7.23265   -4.67751   -7.38003
      H1     8.23245   -4.66456   -7.53531
       H     7.57874   -1.76910   -5.28990
       O     7.39553   -1.88186   -6.23296
      H1     6.87008   -2.76062   -6.14776
       H     4.38790   -4.58436   -5.56253
       O     5.09283   -3.99206   -5.67148
      H1     5.62166   -4.31598   -6.40776
       H     3.03261   -4.10139   -9.67526
       O     2.24393   -4.57288  -10.06951
      H1     1.66935   -4.59539   -9.28991
       H    10.19796    0.98375  -10.94111
       O    10.67138    1.60922  -11.49841
      H1    10.90230    2.32599  -10.85433
       H     9.02680   -0.63300  -10.20026
       O     9.04042    0.32403  -10.03366
      H1     8.26402    0.51863  -10.56004
       H     9.30617   -8.26104  -14.72993
       O     8.61801   -7.85563  -15.25867
      H1     9.00033   -6.96443  -15.36085
       H    14.80318   -0.55244   -7.90675
       O    14.02766   -0.02058   -8.24168
      H1    13.32972   -0.66967   -8.02909
       H     2.42580   -2.16622  -11.48508
       O     3.25878   -1.98056  -11.97023
      H1     3.17091   -1.03071  -12.08928
       H    11.17891   -5.43236  -15.73388
       O    10.41036   -5.51584  -15.10609
      H1    10.79706   -5.63210  -14.24273
       H     7.44197    4.03750  -14.52502
       O     7.09726    3.88640  -13.61826
      H1     7.91884    3.52042  -13.21728
       H     5.91675   -2.71160  -10.63306
       O     5.42576   -1.88881  -10.47181
      H1     4.62674   -2.09172  -11.04630
       H    17.10948   -2.29118  -12.00233
       O    17.07350   -2.99902  -12.65951
      H1    16.10882   -3.06553  -12.71797
       H    10.07154    2.36503   -5.43407
       O     9.23964    2.25489   -5.91333
      H1     9.44173    1.55015   -6.50948
       H    15.91240   -3.57072   -8.42511
       O    16.38934   -2.68846   -8.73998
      H1    17.18544   -3.18450   -9.11464
       H    12.73750   -3.52313  -16.82386
       O    12.65859   -4.43867  -16.46124
      H1    13.14117   -4.92379  -17.17294
       H    12.41945    1.36370  -11.70086
       O    13.29616    1.31282  -12.06632
      H1    13.73543    0.59955  -11.56971
       H     9.20500   -4.60158  -15.76738
       O     8.71882   -4.02930  -16.46858
      H1     7.89987   -4.60378  -16.64758
       H    10.07088   -7.74568   -7.76551
       O    10.12208   -7.92338   -8.74786
      H1    10.38170   -7.04494   -9.08592
       H    10.50524   -4.58076   -8.88593
       O    10.91501   -5.39797   -9.30019
      H1    10.83608   -5.19480  -10.25160
       H    11.17164   -5.70893   -4.78118
       O    12.02293   -6.08786   -5.18266
      H1    12.55343   -6.07178   -4.38647
       H     8.87442   -8.40192  -10.32057
       O     7.99816   -8.67172  -10.57578
      H1     7.65116   -7.86019  -10.90473
       H     9.50328   -6.16540  -12.33198
       O    10.44302   -5.92195  -12.12495
      H1    10.88278   -6.73927  -11.89220
       H    13.38917   -2.31918   -6.84426
       O    12.58941   -2.10408   -7.35231
      H1    12.64575   -2.77309   -8.08652
       H    10.96706   -3.26799   -6.97402
       O    10.04232   -3.45595   -7.34203
      H1     9.70630   -2.55106   -7.56199
       H     3.95448   -2.69539  -13.58026
       O     4.32785   -2.89030  -14.41753
      H1     4.69349   -2.05129  -14.77934
       H     9.60020    4.40794  -12.17633
       O     9.98176    3.86130  -12.90723
      H1    10.23213    2.97713  -12.52462
       H    10.84307    1.11256  -14.55405
       O    10.49189    1.67448  -15.26219
      H1    10.34140    2.51747  -14.78176
       H     7.18357   -5.11341  -10.45723
       O     6.94109   -4.21228  -10.11330
      H1     6.81409   -4.41169   -9.14316
       H    13.25916    0.59422  -13.68839
       O    12.82480    0.03253  -14.32023
      H1    13.59196   -0.29656  -14.88480
       H     6.55933    1.82976  -10.99447
       O     6.78909    1.07673  -11.56429
      H1     6.14282    0.35816  -11.33434
       H     6.62632   -3.99157  -14.11839
       O     7.22204   -4.52513  -13.57225
      H1     7.92867   -3.83050  -13.48711
       H     4.43856   -6.84472   -8.12375
       O     5.02590   -6.15968   -8.50045
      H1     4.43607   -5.38737   -8.51335
       H    10.19193    4.82910   -9.72773
       O    10.75983    4.13133  -10.12298
      H1    11.44481    4.69899  -10.49930
       H    11.47467   -9.65272  -14.46595
       O    10.88296   -8.98341  -14.16299
      H1    11.37126   -8.52964  -13.46917
       H     5.02824   -6.97796   -9.89051
       O     5.16956   -7.63270  -10.59206
      H1     4.44927   -7.59002  -11.22886
       H     2.61481   -0.28085   -9.01155
       O     3.25545    0.45211   -8.90291
      H1     3.85581   -0.01725   -8.25718
       H    11.99571    3.64972   -8.66685
       O    12.82473    3.19588   -8.42307
      H1    12.88606    2.38587   -8.97957
       H     5.54843    2.96040  -10.01382
       O     6.40054    3.41038  -10.17723
      H1     6.27525    4.19640  -10.71519
       H     9.18251   -0.32033   -8.37302
       O     9.40577   -0.51231   -7.47005
      H1     8.57229   -0.90158   -7.15443
       H     4.73583   -0.34194  -16.46283
       O     5.45378   -0.76038  -15.89479
      H1     5.82861   -1.35196  -16.57123
       H    13.17745   -7.48700  -11.22889
       O    12.29732   -7.62936  -11.54704
      H1    12.20543   -8.56753  -11.37923
       H     7.38208   -8.20213   -6.91090
       O     7.19894   -7.47013   -6.27631
      H1     7.69318   -7.78911   -5.53416
       H    15.26254    0.95967  -12.64895
       O    15.83692    0.37372  -13.22330
      H1    16.51784    0.17347  -12.53147
       H     9.19810   -1.03026  -16.77752
       O     9.52662   -1.71696  -17.42696
      H1     9.06779   -2.55996  -17.26906

