180
frame 6 | Written by MDAnalysis XYZWriter (release 2.4.3)
       H    -3.89538    4.50086    5.26030
       O    -3.78839    4.55587    4.32154
      H1    -4.64904    4.81746    4.08079
       H    -0.36179   -0.47835    5.75564
       O     0.16880   -0.50446    4.93583
      H1    -0.40185   -1.14214    4.44597
       H    -0.89292    2.77240   14.34214
       O    -1.24837    3.34398   15.02665
      H1    -1.34776    4.17812   14.52760
       H    -6.66803    2.77204    9.22077
       O    -7.05256    2.48519   10.10032
      H1    -7.93835    2.86333   10.06930
       H    -0.49228    5.04780    6.53770
       O    -0.27184    4.05202    6.43568
      H1     0.68742    4.24650    6.48608
       H    -4.23610    7.15793   10.49993
       O    -3.70815    6.90273    9.72544
      H1    -3.99864    7.54586    9.04524
       H    -0.40268   -3.01488    6.69167
       O     0.46432   -3.49499    6.66911
      H1     1.09162   -2.80105    6.58052
       H    -2.39882   -1.87847    9.98882
       O    -2.83544   -2.52592    9.42695
      H1    -2.68824   -2.25965    8.51515
       H     1.79789    1.45256    7.51042
       O     1.55659    1.54189    8.44844
      H1     1.51760    2.52513    8.43518
       H    -1.49323    2.80914    9.22512
       O    -1.10527    3.00085   10.09738
      H1    -1.48978    3.81520   10.37446
       H    -2.55525    1.19383   16.32102
       O    -2.17584    0.33039   16.49511
      H1    -1.40464    0.57732   16.96807
       H     0.53040    4.03565    9.13935
       O     1.46804    4.38517    9.10774
      H1     1.54464    4.80812    9.94947
       H    -3.58694    5.05354    8.03581
       O    -3.47104    4.88637    7.09569
      H1    -2.96389    4.06205    7.05785
       H    -6.60942   -4.78061   14.56240
       O    -6.16389   -4.34475   13.85610
      H1    -6.25064   -3.45716   14.17246
       H    -1.19123   -3.38926    9.70207
       O    -0.30338   -3.55170   10.10347
      H1    -0.16157   -4.48150    9.82897
       H    -5.11190   -1.40736   10.14878
       O    -5.53403   -2.04559   10.79813
      H1    -6.29854   -1.50540   10.91479
       H    -0.26161    0.19342    8.30009
       O    -1.07046   -0.25902    8.27573
      H1    -1.49638   -0.02542    9.13934
       H     0.80164    0.82879   11.68930
       O     1.19952    0.28597   11.00648
      H1     1.24454    0.87925   10.23488
       H    -3.02172    0.67632   13.51173
       O    -3.89404    0.82986   13.02639
      H1    -3.99879   -0.05197   12.73116
       H    -4.13538    2.23375   11.81290
       O    -4.49154    2.63248   11.01731
      H1    -5.40287    2.35071   10.96857
       H   -10.19183    4.48903    9.94127
       O    -9.45212    5.16988    9.98174
      H1    -9.11666    4.96485   10.82701
       H    -9.62348    3.11708   14.56852
       O    -8.71406    3.00719   14.24018
      H1    -8.53147    2.20895   14.72824
       H    -8.78574    3.39384    6.77257
       O    -8.33012    2.99144    7.48889
      H1    -8.83519    2.19368    7.64182
       H    -6.56106    2.95949    7.46223
       O    -5.67473    2.78242    7.82661
      H1    -5.28156    3.64399    7.64864
       H   -11.46964    0.94626    7.27827
       O   -10.77938    1.49640    7.73845
      H1   -10.88923    2.38353    7.26584
       H    -7.58481    5.72691    5.36752
       O    -6.78997    5.36004    5.69171
      H1    -6.17386    6.11056    5.53502
       H    -8.15468    2.40786    4.77475
       O    -8.96154    1.86347    4.83202
      H1    -8.67997    1.02263    5.14856
       H    -8.07938    5.94393   12.66015
       O    -7.65612    5.32102   11.99899
      H1    -7.70511    4.54789   12.56647
       H    -2.07584    6.08991   10.87726
       O    -1.18028    5.75967   11.16217
      H1    -0.64110    6.59599   11.05053
       H     0.78240   -2.79495   12.76029
       O    -0.10534   -3.02104   13.01446
      H1    -0.59813   -2.96208   12.12849
       H    -9.62737    2.56457   12.40811
       O    -9.63528    2.14342   11.51299
      H1   -10.55501    1.84816   11.41516
       H    -6.21594   -4.86443   12.21218
       O    -6.42234   -5.10650   11.28275
      H1    -6.62656   -6.06495   11.35568
       H    -6.01548   -1.71858   14.28233
       O    -6.70430   -1.71218   14.93082
      H1    -6.24758   -2.09467   15.68358
       H    -1.82550    1.48095    7.76601
       O    -2.12055    2.43011    7.67052
      H1    -1.33224    2.72868    7.17501
       H    -4.83862   -0.80977    6.38675
       O    -5.78209   -0.58221    6.55431
      H1    -5.92261    0.36214    6.30592
       H    -8.76591   -0.72953    9.45705
       O    -7.81876   -0.75608    9.68683
      H1    -7.52260    0.16582    9.79092
       H    -6.91485    6.09381    7.58252
       O    -7.22278    6.40307    8.41529
      H1    -7.71647    5.60946    8.72352
       H    -1.28203   -1.55106   13.56236
       O    -1.98872   -0.95320   13.74426
      H1    -2.07439   -0.98349   14.69543
       H    -6.37506    4.70676   14.67738
       O    -7.07280    5.09454   15.28458
      H1    -7.75852    4.43448   15.19874
       H    -8.88866   -2.87811   11.75560
       O    -9.06430   -3.72746   11.31719
      H1    -8.13904   -3.96766   11.13738
       H    -6.32860    0.53381   13.31884
       O    -6.81712    0.17438   12.55475
      H1    -7.24541    0.92707   12.14995
       H    -4.26456    5.29470   14.30007
       O    -4.68762    4.42872   14.27004
      H1    -4.76358    4.32515   13.28737
       H    -2.27832    1.24317    3.86168
       O    -3.06808    0.71019    3.58397
      H1    -3.82619    1.05089    4.13519
       H    -3.30418    3.47713   16.68315
       O    -3.97898    2.82860   16.46510
      H1    -4.33937    3.38272   15.77135
       H     0.51034    2.83026   12.91892
       O    -0.16261    2.15185   12.71267
      H1    -0.48278    2.48776   11.83066
       H    -7.16143   -2.49038    8.99864
       O    -6.78175   -3.36425    8.74132
      H1    -6.37091   -3.61057    9.57022
       H    -9.27227   -1.77567   13.50579
       O    -9.18144   -1.33349   12.63724
      H1    -8.47022   -0.68813   12.78736
       H    -5.10106   -5.73978    7.76812
       O    -5.79973   -5.45948    7.16861
      H1    -6.09123   -4.68855    7.72587
       H    -1.81244    6.25017   13.91668
       O    -0.88672    5.91574   13.91351
      H1    -0.67467    5.79161   12.91244
       H    -5.48591    8.22022   11.96439
       O    -5.32790    7.25203   12.04021
      H1    -6.13378    6.87331   11.62163
       H    -2.24407    0.25157   11.80044
       O    -1.85357   -0.32071   11.15771
      H1    -0.96651   -0.34032   11.54007
       H    -7.85209   -1.82741    4.53532
       O    -6.93895   -2.13992    4.55476
      H1    -6.46994   -1.79444    5.36348
       H    -2.03796    6.53680    7.05658
       O    -1.09287    6.62560    6.95599
      H1    -1.07094    7.26489    6.18267
       H    -3.61077   -3.46412    6.28281
       O    -3.23709   -2.57800    6.55101
      H1    -2.84964   -2.20836    5.72032
       H    -3.36707   -1.68663   13.32419
       O    -4.32868   -1.95974   13.21575
      H1    -4.44073   -2.27822   12.34651
       H    -6.12037    1.60515   16.04006
       O    -6.51422    1.33708   15.23203
      H1    -6.40157    0.42210   15.19741
       H    -3.99830   -5.90511    9.72437
       O    -3.63041   -5.34418    9.01941
      H1    -3.65504   -4.54328    9.59022
       H    -7.81175   -0.53127    7.07176
       O    -8.67033   -0.29961    6.69094
      H1    -9.00059    0.39997    7.30110
       H    -4.36250    1.26318    9.95693
       O    -4.37364    0.40872    9.51809
      H1    -4.86617    0.49575    8.72205
       H    -5.58624    2.53001    5.42310
       O    -5.50349    1.88343    4.69061
      H1    -5.65275    2.49195    3.91428

