180
frame 1 | Written by MDAnalysis XYZWriter (release 2.4.3)
       H    -6.52775  -13.01674    8.28301
       O    -5.95719  -13.63173    7.82993
      H1    -5.00463  -13.40758    8.03651
       H    -9.31404  -11.93948    8.58908
       O    -8.60186  -12.55695    8.33759
      H1    -8.79336  -12.66558    7.36894
       H    -3.24311  -11.78144    6.55058
       O    -3.57135  -11.13512    5.91392
      H1    -2.97255  -10.39892    5.90478
       H    -0.77262  -15.67040    8.58047
       O    -0.97113  -15.87743    7.69339
      H1    -0.38348  -15.30641    7.21211
       H    -6.05562  -13.92720    0.35657
       O    -6.18428  -13.05537   -0.09396
      H1    -6.21827  -12.47787    0.63178
       H    -7.60822  -12.49130    2.99214
       O    -8.19710  -13.24202    3.10574
      H1    -7.58217  -13.96487    2.99831
       H    -8.36940   -9.59486    2.19923
       O    -8.94997   -9.70332    3.00575
      H1    -8.84080   -8.80918    3.50150
       H    -5.61447  -15.94143    9.19763
       O    -6.49204  -16.34008    9.38339
      H1    -7.04529  -16.28455    8.58870
       H   -10.16961  -14.65967    0.78805
       O   -10.21790  -13.71330    0.57495
      H1    -9.50018  -13.14217    0.89395
       H   -14.25423  -16.81127    5.62318
       O   -14.26732  -17.39465    6.36392
      H1   -13.58495  -17.02360    6.91531
       H    -7.42901  -10.79891    3.25453
       O    -6.57163  -11.21628    3.02927
      H1    -6.41646  -11.55897    3.94415
       H   -10.34255  -16.09130    4.42347
       O    -9.72535  -15.35195    4.27496
      H1   -10.21950  -14.70123    3.77062
       H    -6.47227  -13.05724   10.97168
       O    -6.93064  -13.86246   11.09310
      H1    -6.54417  -14.28511   10.32896
       H   -12.44877  -15.49992    6.15191
       O   -12.47448  -15.40050    7.13125
      H1   -12.17653  -14.47471    7.24936
       H    -5.91977  -14.54901   12.65408
       O    -5.50987  -15.04550   13.40839
      H1    -5.34791  -14.30377   14.02334
       H    -4.31460  -16.68994   10.76221
       O    -3.65260  -16.62669   10.05263
      H1    -3.46089  -17.53944    9.83907
       H    -4.95561  -15.84712    0.95038
       O    -5.82612  -15.44927    1.10693
      H1    -6.19158  -15.87838    1.88473
       H    -1.92182  -18.85604    7.71575
       O    -2.64324  -18.62879    8.37191
      H1    -3.36122  -19.26229    8.01979
       H    -6.66017   -8.29060    6.97324
       O    -7.36043   -7.63301    6.75610
      H1    -7.91295   -7.92419    7.47186
       H    -4.75326   -9.49305    8.41016
       O    -5.74515   -9.57789    8.29690
      H1    -5.95047  -10.38349    8.78567
       H    -3.98768  -11.52627   12.23399
       O    -3.57483  -11.81452   11.44178
      H1    -3.24626  -10.97335   11.12078
       H   -11.04802  -12.19276   12.20950
       O   -11.00379  -12.51861   11.29465
      H1   -11.85367  -12.89540   11.18229
       H    -2.81659  -10.24989    8.00611
       O    -3.06683   -9.92019    8.91842
      H1    -2.35302   -9.28075    9.06752
       H   -16.09463  -14.48878    9.25459
       O   -15.22177  -14.63524    8.96837
      H1   -15.16774  -15.59613    8.86201
       H    -2.47708  -13.06644    8.44483
       O    -3.13006  -13.02958    7.72699
      H1    -3.11450  -13.96075    7.42861
       H   -12.47870  -16.22054    3.65034
       O   -12.20743  -16.52991    4.52791
      H1   -12.46811  -17.48383    4.45002
       H    -1.20950  -13.77662   10.34265
       O    -1.44798  -12.87102   10.00943
      H1    -2.19522  -12.67714   10.60362
       H   -10.35787  -17.66402    9.46689
       O   -10.99950  -17.58198    8.74153
      H1   -11.44010  -16.73034    8.83287
       H    -2.10765  -15.87234   10.33855
       O    -1.17133  -15.70346   10.50532
      H1    -0.84292  -16.61716   10.66266
       H    -4.41518  -17.40855    6.92473
       O    -5.10773  -17.99481    6.52911
      H1    -5.92201  -17.40214    6.60490
       H    -8.04095  -15.51175    7.41210
       O    -7.52487  -16.22548    7.02633
      H1    -8.21054  -16.83189    6.60951
       H   -15.01132  -11.60164    8.72744
       O   -14.14299  -11.95969    8.58863
      H1   -14.23349  -12.91552    8.47354
       H   -11.44657  -19.17007    9.98666
       O   -11.77773  -19.18628   10.91653
      H1   -11.50598  -18.29002   11.29165
       H   -10.35250  -10.81458    3.69798
       O   -10.68145  -11.45217    4.34698
      H1    -9.95860  -12.12500    4.25492
       H    -6.45531  -15.67981    5.18506
       O    -6.09020  -15.80622    4.27921
      H1    -6.71896  -16.42404    3.92022
       H   -12.92011  -14.96575   11.28754
       O   -12.78712  -14.48475   10.45565
      H1   -13.71439  -14.52769   10.03555
       H    -8.80468  -19.07011    7.70562
       O    -8.38293  -19.88259    8.02737
      H1    -7.79582  -19.50103    8.71894
       H    -6.88586  -18.18055    2.38120
       O    -7.56631  -17.52279    2.52297
      H1    -8.19562  -17.97576    3.11986
       H   -10.18703  -17.54741   13.05280
       O   -10.82548  -17.00218   12.59237
      H1   -10.19474  -16.53677   12.08711
       H   -10.31446  -17.80068    7.01577
       O    -9.63436  -17.80810    6.36122
      H1    -9.93399  -18.63718    5.90753
       H   -11.46226  -12.10560    5.92558
       O   -11.90714  -12.30303    6.76364
      H1   -12.79573  -12.00067    6.66501
       H    -8.04129  -13.11357    5.51231
       O    -8.87927  -13.41527    5.89124
      H1    -9.07866  -14.19716    5.31008
       H    -9.85098   -9.18322    8.56600
       O    -9.31682   -8.41193    8.62714
      H1    -9.90045   -7.70589    8.29643
       H    -2.74677  -15.98649    7.30262
       O    -3.46237  -15.61415    6.75254
      H1    -3.06402  -15.55546    5.85225
       H    -9.99237  -13.29510   13.93527
       O    -8.99437  -13.32446   13.95736
      H1    -8.80223  -13.75014   13.05930
       H   -12.58157  -17.11010    1.20849
       O   -11.72543  -17.11002    1.75865
      H1   -11.57973  -17.98048    2.03017
       H   -10.33582  -16.67781    1.09328
       O    -9.50199  -16.61527    0.57354
      H1    -8.87781  -17.04397    1.22442
       H    -5.20728  -11.94324    5.76064
       O    -5.98121  -12.41798    5.41812
      H1    -6.10426  -13.12134    6.12116
       H   -10.11752  -14.14993   11.10929
       O    -9.50255  -14.91348   11.33336
      H1    -8.60282  -14.57603   11.17244
       H   -12.47425  -11.43426    3.70180
       O   -13.36615  -11.77285    3.40957
      H1   -13.56506  -10.91310    2.91958
       H   -14.55137  -19.45319   10.26208
       O   -14.42819  -18.50666   10.35261
      H1   -13.48257  -18.50643   10.24234
       H    -4.11494  -17.70637    5.14578
       O    -3.86038  -17.48906    4.23957
      H1    -4.44508  -16.75629    4.13098
       H    -3.62337  -12.20179    4.14269
       O    -3.47087  -12.62479    3.29108
      H1    -4.24392  -13.24085    3.32698
       H    -6.16624  -19.32422   10.16902
       O    -6.88072  -18.89698   10.62362
      H1    -6.99409  -18.06919   10.01330
       H   -12.05586  -10.45135    7.49025
       O   -12.13150   -9.49216    7.65029
      H1   -12.64081   -9.53194    8.42648
       H    -5.71208  -16.91827   12.73922
       O    -5.35783  -17.80279   12.60340
      H1    -6.09297  -18.30279   12.27210
       H    -2.07773  -16.21417    3.87421
       O    -1.75256  -15.37728    4.20149
      H1    -2.14997  -14.75619    3.57649
       H   -12.25880  -14.09013    1.46788
       O   -13.04446  -14.21967    2.00816
      H1   -13.15559  -13.29951    2.40924
       H    -4.97412  -11.43611   10.54277
       O    -5.93701  -11.29733   10.20767
      H1    -6.15947  -10.55120   10.80081
       H    -4.68466  -18.37947    2.99746
       O    -5.21488  -18.96947    2.38503
      H1    -4.83483  -18.76886    1.47093

