180
frame 2 | Written by MDAnalysis XYZWriter (release 2.4.3)
       H     5.37823   11.69505   15.25033
       O     6.19902   11.27548   14.95368
      H1     6.91828   11.93966   15.14700
       H     4.81439    8.78905   14.43295
       O     4.28581    8.20918   14.98328
      H1     4.39990    7.29992   14.59130
       H    10.38038   14.50141   13.11683
       O    10.12015   13.91535   12.33224
      H1     9.20924   14.18718   12.32776
       H     9.88703   11.54616   12.01687
       O     9.49676   10.68609   12.12288
      H1    10.16606   10.04584   11.81336
       H    12.40791   14.14361   17.93049
       O    13.26658   14.10302   18.29981
      H1    13.50861   15.09094   18.46949
       H    13.31952    6.64458   11.77573
       O    13.98027    6.19257   11.27462
      H1    14.75530    6.29309   11.83113
       H    10.06797    9.13756    7.63561
       O    10.59448    8.50668    8.20555
      H1    10.15095    8.53588    9.07682
       H     7.73631   10.37930   18.58553
       O     7.46453   11.30053   18.86061
      H1     7.12646   11.13982   19.76691
       H     2.88450    9.85646   12.42218
       O     3.01993   10.77843   12.62049
      H1     2.70311   10.73085   13.53171
       H     4.39474   11.67440   17.49298
       O     4.71986   11.44987   18.34746
      H1     5.71229   11.57443   18.28287
       H     3.23583   12.85497   13.21257
       O     3.52711   13.71784   12.94553
      H1     4.29021   13.47842   12.42395
       H     4.05553    8.32028    9.45328
       O     3.92833    8.61940   10.36993
      H1     4.01862    7.88956   10.97266
       H    10.45888    7.68304   13.96562
       O     9.76642    7.12000   13.61990
      H1    10.28026    6.85480   12.81011
       H     9.84031   17.97262   17.62997
       O    10.44879   17.20675   17.79154
      H1    11.28021   17.69381   17.72613
       H    13.84017    8.60837   17.97928
       O    14.22965    9.06786   17.17039
      H1    13.54059    9.74055   16.86472
       H    14.25727    9.78428   14.96749
       O    14.81328    9.62394   14.11424
      H1    15.18734    8.80326   14.35452
       H    13.82525   12.88247   11.72391
       O    14.01051   12.80622   10.79677
      H1    14.98557   12.69192   10.83816
       H     9.24365   11.69387   14.14918
       O     9.00668   12.29298   14.89123
      H1     9.17106   13.21137   14.59448
       H    13.29697   10.11221   11.33111
       O    12.53794    9.74448   10.86167
      H1    12.84942    9.56339    9.92940
       H    10.62755   15.63300   11.31741
       O    10.72701   16.58898   11.49754
      H1    10.45250   16.80554   12.44627
       H     9.00850   17.76666   14.12479
       O     9.91947   17.40468   14.23345
      H1    10.43533   18.11017   14.62717
       H    11.39314   15.11150   15.09119
       O    11.64253   15.10661   14.09298
      H1    11.47308   15.99410   13.79407
       H     6.84452    7.99356   12.92795
       O     7.26801    7.22428   12.56403
      H1     7.93096    7.08272   13.23575
       H    12.24281    7.18990    9.23223
       O    12.98158    6.70320    8.79284
      H1    13.33666    6.15556    9.56427
       H    13.11191    8.63692   13.65453
       O    12.56920    7.95560   13.23832
      H1    12.51800    8.39047   12.36626
       H     7.73650   15.38903   14.50472
       O     8.42811   15.09007   15.10228
      H1     9.13672   15.61770   14.76388
       H     7.06126    9.68613    9.65713
       O     6.41644   10.35934    9.72178
      H1     5.58931    9.75809    9.89230
       H     9.96836   11.65814   15.97600
       O    10.43886   11.23867   16.78567
      H1     9.93800   10.36266   16.82504
       H     8.68028   13.94333    8.93592
       O     8.75608   14.92540    9.10688
      H1     8.11711   15.12752    8.36882
       H    14.09961   14.67768   10.53173
       O    14.41445   15.55890   10.76746
      H1    15.38490   15.40187   10.71525
       H    13.29209   11.43922   15.92652
       O    12.81556   10.61752   15.69565
      H1    11.85488   10.75786   15.97996
       H     6.76829   18.09693   14.27046
       O     7.40435   18.06379   13.57651
      H1     6.84728   17.73986   12.81690
       H     4.13853   15.41548   19.72018
       O     3.88610   14.63040   19.20771
      H1     4.52119   14.59195   18.44555
       H     9.51851   12.28518    9.07546
       O     8.60614   12.37754    8.65525
      H1     8.04638   12.29370    9.47445
       H    13.37702   12.04339   18.54460
       O    13.15008   11.29893   19.10163
      H1    13.96217   10.71287   19.22452
       H    10.90232   15.75323   17.26132
       O    10.93338   14.88030   16.77592
      H1    10.06895   14.50024   17.17185
       H     8.36380    8.55772   14.13771
       O     8.00794    8.88415   15.00200
      H1     7.65223    9.77628   14.81211
       H    16.22292   10.80745   15.30559
       O    16.68575   11.66028   15.39793
      H1    17.01087   11.67938   14.50811
       H    11.34613    5.14188   14.99462
       O    10.79664    4.85968   15.66345
      H1     9.90235    5.11467   15.41706
       H     5.44924   14.29075   16.08010
       O     5.35586   14.17407   17.07906
      H1     6.30695   14.42241   17.25930
       H     8.11077   11.46710   11.50861
       O     7.53979   12.18150   11.07564
      H1     6.86818   11.64102   10.60770
       H     4.64582   13.88168    8.92556
       O     4.29162   14.42466    9.69296
      H1     3.35678   14.18934    9.71656
       H     2.57113   11.46276   15.99662
       O     3.32736   11.93543   15.67349
      H1     3.29770   12.78250   16.12630
       H    10.35368    5.97325   10.87156
       O    10.48501    6.92332   10.81332
      H1     9.66682    7.31318   10.43045
       H    12.90949   13.48373   13.94760
       O    13.15138   12.71496   13.35439
      H1    13.92481   12.33001   13.85621
       H    12.48099   12.06970    7.78342
       O    12.43224   12.85138    7.20078
      H1    13.14250   13.38182    7.57982
       H     7.71034    7.47930    9.77870
       O     8.17710    8.22580   10.20717
      H1     8.03915    8.02356   11.15456
       H     7.00481    4.61721   13.98083
       O     6.16830    5.03074   13.61500
      H1     6.53402    5.74327   13.05422
       H     7.48656   13.87305   11.47825
       O     7.59890   14.61881   12.05896
      H1     8.15915   15.22318   11.48756
       H     5.22517   15.97912   10.61910
       O     5.82728   16.48882   11.13252
      H1     6.34913   15.87197   11.68707
       H     5.10111   10.13730   12.34909
       O     5.98106    9.85650   12.68626
      H1     6.11431   10.58668   13.27671
       H    14.25272   13.29928   16.91973
       O    14.27207   12.94108   16.01341
      H1    15.20702   12.67313   16.02508
       H    14.72084   15.16231   13.03914
       O    15.41901   15.14703   13.72274
      H1    14.95750   15.16970   14.56028
       H     4.83150   14.53551   13.85550
       O     5.28414   14.92816   14.60157
      H1     4.83697   15.74757   14.78786
       H     9.13811   11.75863   19.48772
       O    10.00117   12.12891   19.70891
      H1    10.60295   11.92139   18.98718
       H     9.83942   10.94960    6.54532
       O     9.19268   10.36100    6.90125
      H1     8.71592   10.93507    7.55234
       H     7.52294    7.32865   16.72477
       O     8.11012    6.56554   16.73204
      H1     7.45820    5.86244   16.94948
       H    11.08650   12.94255   10.50143
       O    10.88089   12.04409   10.16780
      H1    11.66932   11.57065   10.33189
       H     8.31458   14.63726   16.89499
       O     8.51686   14.22207   17.80386
      H1     8.47895   13.27335   17.63862
       H    11.30169    8.45046   17.57164
       O    10.35532    8.51951   17.90828
      H1     9.89277    7.80503   17.42009

