180
frame 4 | Written by MDAnalysis XYZWriter (release 2.4.3)
       H    15.30666  -18.04478    3.48633
       O    15.72697  -17.59906    2.72755
      H1    14.92362  -17.33785    2.14985
       H    16.76885  -16.93790   -2.02276
       O    17.47450  -16.56256   -2.63384
      H1    18.27860  -16.90446   -2.25826
       H    19.90765  -15.85130    6.53436
       O    19.14581  -15.23174    6.59876
      H1    19.71181  -14.45684    6.67309
       H    10.23172  -15.91105    7.17099
       O     9.28761  -15.99116    7.12928
      H1     9.11235  -15.51458    6.33225
       H    16.70555  -13.92536    7.32899
       O    16.21047  -13.11060    7.24038
      H1    16.87789  -12.43933    7.10857
       H    11.79835  -13.96517    1.21260
       O    12.74757  -13.78499    1.33528
      H1    12.75451  -12.95347    1.82950
       H    17.39976  -13.06257   -1.24723
       O    18.06894  -12.35614   -1.24685
      H1    17.81348  -11.82324   -1.97718
       H    18.66504  -14.24619    9.72555
       O    19.23903  -13.44880    9.94274
      H1    19.07257  -13.31956   10.90040
       H    15.66696  -17.75998   14.17765
       O    15.08031  -18.37787   14.64997
      H1    14.23289  -18.04862   14.29095
       H    15.25033  -13.07870   12.96849
       O    15.65652  -13.79729   12.41293
      H1    16.02272  -13.25721   11.65869
       H    14.68963  -17.37744    5.69848
       O    14.41866  -18.38870    5.57233
      H1    14.15772  -18.67089    6.47616
       H    13.94206  -11.77627   12.90480
       O    14.19373  -12.04917   13.75783
      H1    13.53917  -12.68948   14.00213
       H    17.87411   -8.05313    0.40970
       O    17.25022   -8.63068    0.04155
      H1    17.63351   -8.73962   -0.85514
       H    19.01509  -10.13954    3.66377
       O    18.78039   -9.99199    2.76319
      H1    18.38044   -9.08420    2.74578
       H    16.46473  -14.66588    0.74298
       O    17.05698  -14.98562    1.44025
      H1    16.58488  -15.70671    1.91336
       H    10.52351  -15.79692   11.54757
       O    11.06732  -15.45284   12.37463
      H1    11.74128  -14.88356   11.94339
       H    12.92125  -11.38732    8.25519
       O    13.78924  -11.80604    8.23005
      H1    14.40456  -11.03471    8.13452
       H    15.95121  -13.98669   -2.57905
       O    15.71664  -13.61322   -3.42510
      H1    16.00158  -12.67443   -3.38322
       H    13.27088  -14.91704    2.75841
       O    13.50419  -15.79521    3.16469
      H1    12.63179  -16.00760    3.53571
       H    17.27260  -18.76723   10.11951
       O    17.50676  -18.65194    9.19026
      H1    17.68292  -17.70879    9.05771
       H    19.20427  -10.55590    8.35793
       O    18.54589  -10.59588    7.70649
      H1    17.97571   -9.82246    7.92192
       H    11.94978  -10.57594    1.90564
       O    12.77788  -11.03434    2.05367
      H1    13.24563  -11.06791    1.18792
       H    16.44665   -7.96331    8.91460
       O    17.39571   -8.11533    8.64540
      H1    17.33101   -7.71750    7.77789
       H    18.07622  -18.74350   -0.90691
       O    17.31069  -19.08852   -0.42202
      H1    17.55953  -19.08174    0.51344
       H    18.26614  -15.55116    8.16389
       O    18.07841  -15.54157    9.12391
      H1    17.13330  -15.69567    9.07101
       H    17.15517   -8.08514    3.47384
       O    17.59308   -7.44312    2.93300
      H1    16.80317   -6.94982    2.58016
       H    13.31806  -13.79240   10.68351
       O    13.54120  -14.69674   11.02707
      H1    14.20643  -14.51412   11.69457
       H    14.66350  -15.19552    5.82301
       O    15.38021  -15.83624    5.64928
      H1    15.24242  -16.16312    4.70620
       H    19.43179  -18.83535    1.97160
       O    18.60147  -18.39593    1.85451
      H1    18.88194  -17.57123    1.42469
       H    17.37453  -18.91761   12.48062
       O    16.73859  -19.34664   11.89508
      H1    15.90923  -19.26835   12.42851
       H    12.34991   -8.95750    6.83105
       O    12.48412   -9.10730    5.88230
      H1    13.17728   -8.44001    5.76412
       H    12.21171  -19.88963    4.14533
       O    12.40610  -19.08761    3.69743
      H1    13.14623  -18.75033    4.29869
       H    17.10701  -19.48197    5.21174
       O    17.26056  -18.58162    5.53107
      H1    16.53119  -18.43907    6.14909
       H    16.64404  -14.52431   13.93944
       O    16.99193  -15.21438   14.55841
      H1    17.50057  -14.76726   15.26521
       H    15.56520  -11.00757   13.80514
       O    16.16140  -10.32357   14.11681
      H1    16.50736   -9.97319   13.25343
       H    15.24836  -15.49343    8.03519
       O    15.51570  -15.71139    8.97716
      H1    14.84678  -15.33437    9.57072
       H    15.41938  -18.81153   -1.59164
       O    15.01429  -17.98872   -1.80380
      H1    14.72747  -17.70832   -0.90009
       H    14.88254  -13.69785    0.11598
       O    15.67910  -13.55047   -0.30979
      H1    16.08312  -12.98496    0.35169
       H    13.03673  -16.46754    8.05731
       O    12.12756  -16.72994    7.95694
      H1    11.99810  -17.06928    8.83287
       H    12.31973  -19.22450   10.57833
       O    11.57837  -18.63360   10.35780
      H1    11.31623  -18.33205   11.21350
       H    11.30747  -14.71022    4.44168
       O    10.82960  -14.10023    5.00659
      H1    10.69876  -13.31418    4.47431
       H    19.04655  -17.42103   12.17229
       O    19.61722  -17.04261   11.50171
      H1    18.88119  -16.72826   10.93820
       H    11.17545  -16.84949    3.06430
       O    11.02238  -16.53834    3.97502
      H1    11.02624  -17.33377    4.50592
       H    17.56879   -5.83178   10.96718
       O    18.32562   -6.39038   10.70075
      H1    17.91598   -6.90770    9.97021
       H    17.05495  -10.70756   11.67153
       O    16.77967   -9.79790   11.73571
      H1    16.20819   -9.67696   10.96727
       H    18.73103  -13.30704   15.79282
       O    17.83545  -12.95596   15.62608
      H1    17.85712  -12.83326   14.67404
       H    13.41498  -13.34226    6.91303
       O    13.36275  -14.04157    6.23902
      H1    12.44512  -13.86232    5.93695
       H    13.71244  -11.80742    9.96974
       O    13.66840  -11.76622   10.92648
      H1    13.23088  -10.82712   11.05684
       H    18.47851  -15.44352    0.95513
       O    19.40768  -15.68126    0.64490
      H1    19.98097  -15.61303    1.44811
       H    10.64212  -19.62745    6.36436
       O    11.23005  -19.65788    7.10034
      H1    11.58179  -18.72751    7.00606
       H    13.63563  -16.11584    1.46354
       O    13.90001  -16.49110    0.58055
      H1    13.87997  -15.76314   -0.04199
       H    16.30037  -12.26966    9.53002
       O    16.73853  -12.08797   10.37815
      H1    17.68880  -12.05299   10.18054
       H    14.52394  -10.23960    3.13128
       O    15.38944   -9.86736    2.89685
      H1    15.83978  -10.72309    2.71219
       H    18.82493  -11.32867    6.08047
       O    18.59308  -11.52114    5.13378
      H1    17.97346  -12.26143    5.01864
       H    17.74694  -17.12332   14.44874
       O    18.10195  -17.83464   13.87635
      H1    18.56679  -18.34739   14.58519
       H    16.34989   -9.58250    4.32017
       O    16.85620   -9.18781    5.06032
      H1    17.59339   -9.76436    5.21124
       H    17.04260  -12.62535    2.79692
       O    16.98606  -12.01954    2.04477
      H1    17.73456  -11.45492    2.21201
       H    17.91471  -17.06227    3.58255
       O    18.29824  -16.26085    3.98089
      H1    18.33624  -16.55505    4.91120
       H    17.42885  -14.63317    4.14987
       O    17.07118  -13.78285    4.33654
      H1    16.29891  -14.06075    4.82989
       H    15.61051   -9.79168    6.49415
       O    15.00419   -9.54183    7.18503
      H1    14.13807   -9.82683    6.81853

