180
frame 5 | Written by MDAnalysis XYZWriter (release 2.4.3)
       H   -14.09055    0.71444   -9.73103
       O   -13.67613    1.53519   -9.34655
      H1   -13.68161    2.14543  -10.14254
       H   -16.37342    6.90303   -4.17829
       O   -16.64348    6.71125   -3.24280
      H1   -15.92601    6.15187   -2.94398
       H   -13.07049    4.36351  -10.83741
       O   -13.64512    3.69965  -11.29676
      H1   -14.41812    4.29380  -11.52384
       H   -10.50958    7.40939  -11.46264
       O   -10.06572    6.52050  -11.36470
      H1   -10.16686    6.04914  -12.24210
       H   -14.12558   -2.91205   -3.90373
       O   -13.83534   -2.38726   -3.14568
      H1   -14.63436   -2.18203   -2.60738
       H   -12.54963    4.97839   -8.22965
       O   -13.37251    5.26039   -7.77442
      H1   -13.77912    4.41307   -7.50592
       H   -18.13336    1.28371   -7.36372
       O   -18.81063    1.27504   -8.04141
      H1   -18.96624    0.34526   -8.18931
       H    -7.00497    0.66315   -8.08659
       O    -7.05149   -0.30095   -8.08116
      H1    -7.99931   -0.41810   -7.84235
       H   -14.23817    1.36385   -6.46434
       O   -14.21010    2.26953   -6.84660
      H1   -14.03775    1.97231   -7.77070
       H   -16.19238    3.50597  -13.24771
       O   -16.94122    2.85524  -13.25118
      H1   -17.02444    2.62714  -12.31811
       H   -11.66334    7.90538   -2.43143
       O   -12.61599    7.73450   -2.22101
      H1   -13.02963    8.07768   -3.01437
       H   -11.99364   -3.19891   -4.12828
       O   -12.09475   -3.59265   -4.99623
      H1   -11.96260   -4.51577   -4.83427
       H   -12.46253    2.01296   -2.57353
       O   -12.30737    1.14349   -2.18060
      H1   -11.86073    0.61508   -2.87229
       H   -14.64571    4.22417   -0.66083
       O   -14.44939    3.69122    0.12463
      H1   -15.25233    3.75497    0.70634
       H   -13.90352    0.86907   -1.74008
       O   -14.86402    0.99657   -1.64121
      H1   -14.85919    1.48481   -0.83006
       H   -12.46878   -4.14425   -9.02375
       O   -12.17326   -3.27365   -9.34081
      H1   -12.18129   -2.77649   -8.53263
       H   -14.80837   -3.90125   -8.93092
       O   -15.79853   -3.88606   -8.99591
      H1   -16.05107   -3.14270   -8.41938
       H   -13.05531    6.40922   -4.88901
       O   -12.57843    5.73234   -5.33054
      H1   -12.91642    5.71401   -6.22666
       H   -14.58347    5.26079  -13.84834
       O   -15.12883    4.56448  -14.29959
      H1   -14.72585    4.63634  -15.16332
       H   -18.36758    3.37933  -10.56360
       O   -18.10015    2.46816  -10.72420
      H1   -18.13758    2.09475   -9.86584
       H   -17.18750   -1.02337  -12.07406
       O   -16.94107   -1.21938  -12.97321
      H1   -16.19619   -0.59506  -13.12500
       H   -14.63015    6.26488   -7.96793
       O   -15.51989    6.75899   -8.09550
      H1   -15.36402    7.46285   -8.79369
       H   -14.45699   -0.79308   -5.23055
       O   -14.34843   -0.45527   -6.13708
      H1   -13.46260   -0.84012   -6.33700
       H   -17.91186   -3.00030   -5.74923
       O   -18.76639   -3.00472   -5.25128
      H1   -18.62983   -3.73492   -4.57211
       H    -8.15189    0.38467  -10.04237
       O    -8.65248    0.33153  -10.85031
      H1    -8.31260   -0.46366  -11.28483
       H   -19.00877    5.59769   -6.44617
       O   -19.63744    6.26390   -6.02428
      H1   -19.54257    6.00280   -5.07848
       H   -16.14654   -1.39998   -9.97585
       O   -17.09394   -1.53585  -10.28474
      H1   -17.17346   -2.46841   -9.91394
       H   -17.48615    4.51058   -7.15698
       O   -17.89880    5.04310   -7.84610
      H1   -17.27887    5.73382   -7.99608
       H   -11.42131   -0.20751  -13.43304
       O   -12.26204    0.28916  -13.27831
      H1   -12.01990    1.22761  -13.02206
       H    -9.71403   -1.53949   -4.38513
       O    -8.96928   -1.27751   -4.94883
      H1    -8.40912   -0.73864   -4.37392
       H   -16.41195    7.72450   -6.49641
       O   -16.26443    7.98050   -5.61291
      H1   -17.03796    8.54750   -5.49209
       H   -17.62587   -1.51774   -6.98141
       O   -16.82985   -2.04450   -7.01187
      H1   -16.15576   -1.36578   -6.75277
       H   -18.98856    6.18634  -10.45526
       O   -18.40238    6.89719  -10.59366
      H1   -18.84118    7.59492  -10.11244
       H   -14.15775   -1.26239  -10.94423
       O   -14.33203   -1.03279   -9.99493
      H1   -13.40731   -1.05646   -9.65602
       H   -12.38674    4.43754   -3.93453
       O   -12.02120    3.99069   -3.15914
      H1   -11.07501    4.15544   -3.27642
       H   -14.44678    7.20666  -12.91268
       O   -13.58936    6.75389  -12.78579
      H1   -13.45305    7.07930  -11.87472
       H   -15.58443    2.87397   -6.17854
       O   -16.30584    3.41725   -5.83817
      H1   -16.54844    3.10583   -4.94170
       H    -9.67075   -0.01437   -6.41450
       O   -10.02001    0.19323   -7.27346
      H1   -10.33065    1.06082   -7.00178
       H   -17.11338   -0.95481   -1.85340
       O   -17.12174   -0.10617   -2.39176
      H1   -16.12152    0.15947   -2.20827
       H   -11.65011   -2.21789   -6.59257
       O   -12.05949   -1.47208   -7.02893
      H1   -11.25773   -0.95027   -7.12885
       H   -10.86342    6.48703   -5.24659
       O    -9.89737    6.55259   -4.96958
      H1    -9.89084    6.74570   -4.01271
       H    -8.81801    1.60750  -12.00525
       O    -8.77559    2.21726  -12.74904
      H1    -7.86846    1.95293  -13.10938
       H   -10.07976    2.64351   -8.50763
       O    -9.59877    2.70200   -9.35106
      H1    -9.88478    1.96918   -9.90229
       H   -10.68765    4.19832   -9.63661
       O   -11.40960    4.86357   -9.81524
      H1   -10.89613    5.59914  -10.14864
       H   -10.86596    2.64250   -6.03500
       O   -11.10902    2.61387   -6.97579
      H1   -12.10261    2.58873   -6.89148
       H   -17.61226    2.32847   -2.64844
       O   -17.01183    2.87750   -3.11801
      H1   -17.53672    3.64645   -3.30737
       H   -15.72815   -4.73480   -4.62664
       O   -14.82984   -4.58655   -4.98937
      H1   -14.35926   -5.30090   -4.56331
       H   -18.58761   -1.13627   -4.92641
       O   -18.34181   -0.18060   -4.83156
      H1   -17.75176   -0.28776   -4.03769
       H    -6.57705    3.49701   -8.84866
       O    -6.91692    2.58340   -8.76126
      H1    -7.89688    2.74728   -8.82719
       H   -13.97674    0.56614  -13.29497
       O   -14.92729    0.64820  -13.51134
      H1   -15.25726    1.36172  -12.90184
       H   -13.25286    8.79605   -5.29566
       O   -13.67008    8.23677   -4.58367
      H1   -14.65909    8.42110   -4.72636
       H   -13.07027    2.85076  -14.18158
       O   -12.40787    2.93375  -13.51024
      H1   -12.87854    3.16559  -12.67260
       H   -11.89382    4.83629    0.02807
       O   -12.01822    5.25280   -0.82635
      H1   -12.13735    4.52812   -1.41186
       H   -11.05622   -1.22410   -1.96492
       O   -11.42685   -1.40692   -2.86118
      H1   -12.28100   -1.78573   -2.58639
       H   -14.02676    4.94832   -2.51989
       O   -14.96595    4.77337   -2.25664
      H1   -15.09915    3.89580   -2.65261
       H   -18.43821    0.82990   -1.45793
       O   -19.10894    1.25905   -0.92584
      H1   -19.83036    0.61871   -0.92249
       H   -15.69947    8.80874  -11.16215
       O   -15.40680    8.96876  -10.28123
      H1   -15.96983    9.68618   -9.97420
       H   -11.06247    6.49695   -2.01747
       O   -10.15362    6.79153   -2.32863
      H1    -9.92259    7.24319   -1.46511
       H   -19.34015    4.93899   -3.18827
       O   -18.67838    4.87007   -3.95999
      H1   -18.05240    5.59490   -3.86949
       H    -8.51203    3.67988   -5.07723
       O    -9.42505    3.75706   -4.80451
      H1    -9.52011    4.72438   -4.71630

