180
frame 7 | Written by MDAnalysis XYZWriter (release 2.4.3)
       H   -11.39692   -3.01526   -3.75387
       O   -12.13916   -2.90887   -3.10184
      H1   -12.97929   -3.14484   -3.54797
       H   -11.46193   -6.28926   -2.30258
       O   -11.84272   -7.18055   -2.48557
      H1   -11.05126   -7.76948   -2.41203
       H   -15.55353   -7.40694    2.12639
       O   -16.07845   -6.61325    1.98714
      H1   -16.96851   -6.93383    2.14789
       H   -10.00339   -3.84962   -5.30329
       O   -10.92039   -3.67364   -5.40440
      H1   -11.34798   -4.52642   -5.59303
       H   -10.71981   -2.95836    0.15885
       O   -10.13872   -2.29971   -0.24231
      H1    -9.29673   -2.72529   -0.07312
       H   -11.54008    3.05338   -1.93394
       O   -11.65854    2.52309   -1.13814
      H1   -12.31915    1.94785   -1.54744
       H   -13.17610    2.24491    3.28888
       O   -14.02967    2.44888    3.70596
      H1   -14.22235    3.33672    3.40958
       H   -13.02921    0.39785   -0.15327
       O   -13.85332    0.76512   -0.50361
      H1   -13.87986    1.63753   -0.12605
       H    -8.46052  -10.44213    0.97754
       O    -9.43927  -10.41394    1.22873
      H1    -9.55281   -9.64911    1.77787
       H    -5.02850   -5.28781   -1.89827
       O    -4.88880   -4.95274   -0.97205
      H1    -3.87736   -4.88185   -0.97410
       H   -15.88220   -1.72624   -0.07746
       O   -16.25343   -1.94263   -0.97131
      H1   -17.17938   -2.09968   -0.76806
       H   -12.95559   -3.00733    1.30116
       O   -12.22585   -3.65170    1.12760
      H1   -12.17381   -4.14507    2.04092
       H    -6.59204   -1.45472    3.31482
       O    -5.83464   -1.49846    2.68338
      H1    -6.26536   -1.70198    1.88707
       H   -14.49521   -1.11054   -5.39455
       O   -14.25832   -0.46314   -6.06975
      H1   -13.48061   -0.85419   -6.48337
       H    -6.07104   -6.15913    0.09849
       O    -6.69178   -6.86126    0.47747
      H1    -7.09326   -6.21954    1.13096
       H    -9.08549   -8.84479    4.11140
       O    -9.70547   -8.37928    3.54436
      H1   -10.58855   -8.43455    3.91036
       H   -13.88585   -8.36775   -1.75327
       O   -14.13016   -9.27721   -1.56123
      H1   -13.33808   -9.78146   -1.30143
       H   -11.13418   -1.81127    3.83249
       O   -10.23767   -2.14337    3.87686
      H1   -10.37355   -2.94926    3.37761
       H   -11.29917    1.25641    0.35974
       O   -11.57888    0.43043    0.79467
      H1   -10.70831    0.06421    0.92823
       H   -12.63512   -7.83792   -3.96128
       O   -12.95627   -8.38317   -4.72526
      H1   -13.85673   -8.06972   -4.89068
       H    -9.00292    1.52771    4.61146
       O    -9.87799    1.07330    4.63668
      H1    -9.73633    0.41256    5.27796
       H    -9.55944   -0.50352    2.91260
       O    -9.22914   -0.26972    1.99587
      H1    -8.94517   -1.12987    1.59705
       H    -4.92300   -3.02561    2.66575
       O    -4.58192   -3.85799    2.34569
      H1    -4.41364   -4.40890    3.15624
       H    -7.06688   -3.36914    0.92382
       O    -7.45516   -2.58407    0.51658
      H1    -6.78460   -2.49379   -0.18874
       H    -9.72380   -0.95543   -3.12484
       O    -9.06745   -1.23951   -3.75067
      H1    -8.27530   -0.74574   -3.52316
       H   -14.69042   -2.70874    2.49336
       O   -14.72659   -2.04795    1.71432
      H1   -14.82689   -1.22708    2.19209
       H   -12.49562   -0.57837    5.23072
       O   -12.46868   -0.95926    6.11336
      H1   -11.67270   -1.38524    6.40101
       H    -6.51540    0.09124   -2.57678
       O    -6.18152   -0.50074   -3.28199
      H1    -5.68184   -1.22624   -2.82955
       H    -8.94703   -8.01220   -2.18486
       O    -9.48807   -8.76229   -2.48935
      H1    -9.44886   -8.71320   -3.45714
       H   -14.75081    0.83841    1.09922
       O   -15.30299    0.73825    1.85431
      H1   -14.88192    1.40589    2.47059
       H    -9.66336   -0.06129   -5.31989
       O    -9.63369    0.08604   -6.29262
      H1   -10.15682    0.93205   -6.33310
       H    -8.59686   -5.92391   -1.97421
       O    -7.99721   -6.66619   -1.92737
      H1    -7.57987   -6.55779   -1.06168
       H   -11.51078    1.38117    2.22866
       O   -11.42900    2.24578    2.63701
      H1   -10.85786    2.09567    3.38548
       H    -6.47124   -4.41719    2.64661
       O    -7.33910   -4.64610    2.28595
      H1    -7.91038   -4.58941    3.08245
       H   -17.78085   -3.82296    3.05987
       O   -17.90821   -4.31508    2.25510
      H1   -16.98840   -4.65202    2.09054
       H   -15.65068   -0.72707   -2.12456
       O   -15.40096    0.01187   -2.65859
      H1   -14.67279    0.32876   -2.13637
       H   -11.80802   -2.15054   -6.61387
       O   -11.74871   -1.33837   -7.07675
      H1   -10.87976   -0.97415   -6.70623
       H    -6.88473    2.01619   -2.17121
       O    -7.52350    1.44839   -1.67625
      H1    -7.21065    1.62594   -0.78373
       H    -9.31073    4.07109    0.47072
       O    -9.71845    4.25891    1.37564
      H1   -10.19355    3.47456    1.72249
       H    -4.54784   -1.71873   -1.18295
       O    -5.22608   -2.37689   -1.30913
      H1    -4.82614   -3.20390   -1.03150
       H   -13.49663   -7.01198    3.16646
       O   -13.14541   -6.50602    2.43075
      H1   -13.94993   -6.27302    1.95091
       H   -13.26286   -4.32891    6.12956
       O   -12.88855   -5.11313    5.72989
      H1   -13.64835   -5.64752    5.42779
       H    -8.36187    2.87779   -1.39783
       O    -8.57454    3.76492   -1.05191
      H1    -8.78704    4.29571   -1.83285
       H    -6.85634   -8.81801    0.24555
       O    -6.76565   -9.77914    0.38521
      H1    -6.79094  -10.04608   -0.59538
       H   -13.34657   -0.98335    3.08297
       O   -12.38917   -0.73382    3.24830
      H1   -12.25662   -0.45356    2.30310
       H    -8.88198   -4.92772    5.99057
       O    -9.08259   -4.76839    6.93244
      H1    -8.26869   -4.30112    7.22072
       H   -12.14714   -5.29156    3.20828
       O   -11.61812   -4.58547    3.63028
      H1   -12.05557   -4.55959    4.49032
       H   -14.51598   -1.87014   -3.74419
       O   -14.55725   -2.70226   -4.28616
      H1   -15.15883   -3.18475   -3.72818
       H   -11.51388   -4.03617   -2.21334
       O   -10.95358   -4.71974   -1.83346
      H1   -11.27413   -4.76717   -0.93868
       H    -8.32949   -1.70517    4.85195
       O    -7.39963   -1.90416    4.69135
      H1    -6.92970   -1.36687    5.38240
       H   -15.69117   -3.30547    4.63860
       O   -15.09899   -3.74877    3.99279
      H1   -15.50179   -4.66856    4.03885
       H    -8.48494   -2.91875   -4.50333
       O    -8.23979   -3.65613   -5.01037
      H1    -8.22806   -3.35431   -5.91652
       H    -6.59819    1.26213    1.27092
       O    -7.45365    1.62915    1.08102
      H1    -8.04027    1.02185    1.54491
       H    -6.55773   -6.46005   -3.45632
       O    -5.63787   -6.10321   -3.35263
      H1    -5.36293   -5.99996   -4.27121
       H   -10.05660   -5.36668    4.24662
       O    -9.07629   -5.44233    4.28637
      H1    -8.94194   -6.16909    3.67687
       H    -5.25397   -0.02143    1.79958
       O    -4.94582    0.58316    1.09345
      H1    -4.10580    0.80744    1.48566
       H   -15.89487   -5.07093   -2.81683
       O   -16.39905   -4.23338   -2.70822
      H1   -16.10161   -3.87318   -1.86631
       H    -8.71161   -0.19714    7.38278
       O    -8.99892   -0.54267    6.53352
      H1    -9.28472   -1.43900    6.70482
       H   -11.07754   -0.92923   -1.10893
       O   -11.49116   -0.54465   -1.90950
      H1   -11.93009   -1.33640   -2.27317
       H    -5.28381   -3.24307   -6.20239
       O    -5.41832   -3.56594   -5.29560
      H1    -6.36177   -3.43494   -5.16983

