180
frame 1 | Written by MDAnalysis XYZWriter (release 2.4.3)
       H    -2.04796  -15.00362  -10.55048
       O    -2.94689  -15.07655  -10.16940
      H1    -3.33063  -14.19732  -10.12862
       H    -7.81943   -7.85153  -17.20907
       O    -7.50367   -8.61353  -17.76444
      H1    -7.12039   -8.30667  -18.56143
       H   -10.28001  -15.62779  -16.35126
       O   -10.71969  -14.86892  -15.98311
      H1    -9.94892  -14.42853  -15.53082
       H   -10.27275  -11.33633  -18.45448
       O   -11.09495  -11.66710  -18.87130
      H1   -11.24947  -11.11215  -19.67364
       H    -9.66010   -3.54828  -16.98084
       O    -9.83572   -4.46274  -16.72915
      H1   -10.54761   -4.76726  -17.31632
       H    -6.62295  -16.69315  -15.24347
       O    -7.13577  -17.28576  -14.63337
      H1    -6.73930  -18.16532  -14.78570
       H    -4.87722  -12.12547  -16.09617
       O    -4.53564  -12.80621  -15.51915
      H1    -3.81149  -13.13135  -16.15363
       H    -7.75662  -10.82828  -11.15854
       O    -7.26414  -10.40279  -11.90134
      H1    -6.43500  -10.11214  -11.51392
       H    -4.59966   -2.18106  -15.71522
       O    -3.81750   -2.74246  -15.66023
      H1    -3.60329   -2.86605  -14.71132
       H     0.39261  -10.54931  -11.54336
       O     1.26277  -10.16127  -11.80497
      H1     1.70632  -10.81535  -12.30791
       H     1.63537   -6.51643  -12.62825
       O     1.31823   -5.58467  -12.83881
      H1     0.68698   -5.67087  -13.60381
       H   -11.29090  -12.17742  -12.82116
       O   -10.29679  -12.06581  -12.65497
      H1    -9.79864  -12.52680  -13.36005
       H    -4.23011  -18.35098  -15.27233
       O    -3.85893  -17.45806  -15.50083
      H1    -3.57027  -17.04960  -14.63693
       H    -0.65951   -6.93984  -11.72359
       O    -1.28615   -7.63338  -11.83153
      H1    -2.12837   -7.16370  -11.51807
       H    -1.64581  -10.27223  -17.90318
       O    -1.02295  -11.00670  -18.11913
      H1    -1.19151  -11.19553  -19.04356
       H    -6.21285  -15.90373  -11.43812
       O    -6.17616  -14.92985  -11.30916
      H1    -6.27096  -14.52907  -12.21978
       H    -4.71090   -9.61882  -15.91520
       O    -5.20486   -9.78010  -16.72017
      H1    -5.96165   -9.19964  -16.94468
       H    -5.56803  -14.40436  -15.91022
       O    -6.14004  -15.20611  -16.12446
      H1    -6.85519  -14.80860  -16.63314
       H    -8.08887  -13.25250  -14.26954
       O    -8.84506  -13.22849  -14.87619
      H1    -8.69996  -12.51436  -15.50555
       H   -12.94190  -10.29209  -17.45383
       O   -12.50381   -9.69825  -16.80480
      H1   -11.58258   -9.98625  -16.72526
       H    -2.47892  -15.48241  -12.62671
       O    -3.03835  -16.11325  -13.10922
      H1    -3.50140  -16.46077  -12.34706
       H    -1.61506   -2.73425  -12.58427
       O    -1.72565   -2.78002  -13.52309
      H1    -1.50213   -3.65427  -13.83001
       H    -4.73077   -7.81974  -11.40912
       O    -5.08743   -8.63784  -10.97825
      H1    -4.92736   -8.46928  -10.08474
       H     0.86438  -10.55150  -18.60573
       O     1.69790  -10.74667  -19.04843
      H1     2.41035  -10.57029  -18.37634
       H    -5.93214  -12.59176  -13.93683
       O    -6.59058  -12.76795  -13.27474
      H1    -6.79790  -11.91224  -12.89537
       H    -7.31680   -7.99426  -12.69810
       O    -8.14720   -7.57467  -12.57963
      H1    -8.03180   -6.74380  -13.04181
       H    -8.39833   -7.35617  -10.74560
       O    -8.41768   -6.89411   -9.90980
      H1    -7.49363   -7.08596   -9.57577
       H    -3.42979   -5.56810  -17.01199
       O    -4.27761   -5.12027  -16.88200
      H1    -4.14750   -4.22623  -16.47200
       H    -1.76631  -12.81355  -17.45012
       O    -2.37697  -13.45899  -17.01539
      H1    -2.72323  -14.01965  -17.70201
       H    -5.18257  -13.36725  -10.00182
       O    -4.44695  -12.74206  -10.01118
      H1    -4.34002  -12.64227   -9.08393
       H     0.64397  -13.79135  -14.67549
       O     1.29334  -13.16876  -15.03432
      H1     0.73132  -12.40002  -15.15476
       H    -6.72493   -6.04995  -17.45945
       O    -7.47137   -6.08477  -16.84785
      H1    -8.15257   -5.50542  -17.13941
       H    -3.09474   -9.98275  -19.46367
       O    -3.15082   -9.35083  -18.70856
      H1    -3.93717   -9.39179  -18.21637
       H    -0.80095  -13.68794  -11.26515
       O    -1.11664  -14.08259  -12.10154
      H1    -1.52321  -13.34662  -12.52373
       H    -0.74816   -9.19283  -14.79802
       O    -1.21749   -8.41573  -14.42961
      H1    -1.05318   -8.44961  -13.46195
       H    -1.99072  -10.49285  -10.91346
       O    -1.14883  -10.51180  -10.39259
      H1    -1.01562  -11.39966  -10.05295
       H    -4.18356   -8.01339  -14.37051
       O    -4.17083   -8.95194  -14.34691
      H1    -3.23399   -9.21136  -14.30986
       H    -6.32370  -12.46671  -18.75564
       O    -6.85804  -12.50282  -17.91666
      H1    -6.55929  -11.68495  -17.45851
       H   -12.81604   -8.16652  -13.59649
       O   -12.14765   -7.54343  -13.92396
      H1   -11.41658   -8.13828  -14.11355
       H    -1.80621  -16.49697  -17.67270
       O    -2.73159  -16.73252  -17.97072
      H1    -3.25782  -17.00089  -17.15146
       H    -4.07540   -9.95263  -11.57257
       O    -3.56894  -10.81282  -11.76023
      H1    -4.01084  -11.42445  -11.09910
       H    -4.29877   -5.75769  -10.91098
       O    -3.93478   -6.26508  -11.64076
      H1    -4.05618   -5.80448  -12.48949
       H    -2.82759  -14.92127  -20.23141
       O    -3.30206  -14.63564  -19.41478
      H1    -3.20977  -15.36574  -18.78898
       H    -4.42342   -5.77965  -15.26094
       O    -4.44297   -5.93124  -14.30451
      H1    -5.33996   -5.78997  -14.05841
       H     2.68237   -9.00167  -16.84645
       O     3.33321   -9.69244  -17.10162
      H1     3.77749   -9.97036  -16.37097
       H     2.89859   -7.16654  -15.50699
       O     2.10704   -7.40705  -15.98608
      H1     1.51884   -6.68107  -15.98025
       H    -9.31036   -4.22547  -11.45536
       O    -8.44304   -4.63367  -11.50238
      H1    -8.55533   -5.51534  -11.09334
       H    -6.58166   -2.19365  -13.00905
       O    -5.85312   -2.86132  -12.77382
      H1    -6.01029   -3.66389  -13.26884
       H    -5.13936   -5.46353  -18.15009
       O    -5.78852   -5.84286  -18.83294
      H1    -5.30108   -6.02734  -19.66017
       H    -7.75355   -4.73150  -13.52829
       O    -7.03478   -5.15174  -14.03421
      H1    -7.42552   -5.39794  -14.88779
       H     1.03587   -6.89711  -19.15794
       O     0.54257   -6.17455  -18.70200
      H1     0.76188   -5.44057  -19.28158
       H     0.27273   -3.12381  -17.01407
       O    -0.14593   -3.99721  -17.10038
      H1     0.53194   -4.56638  -17.52023
       H    -3.20869  -12.69604  -14.13757
       O    -2.43874  -12.41563  -13.60825
      H1    -2.89758  -11.78333  -12.95689
       H    -8.23721  -11.77535  -17.25863
       O    -9.03716  -11.22390  -17.07967
      H1    -8.81838  -10.32621  -16.69092
       H    -2.15396   -8.49413   -9.87899
       O    -2.73944   -8.18579   -9.14329
      H1    -2.68760   -8.80002   -8.42342
       H    -2.47829   -7.63446  -18.18473
       O    -2.26225   -6.72071  -17.86135
      H1    -1.32278   -6.60477  -18.05409
       H    -1.16309   -6.21943  -14.52201
       O    -0.76672   -5.32765  -14.46094
      H1    -0.59776   -5.12983  -15.41749
       H    -7.95744  -12.53134   -9.44901
       O    -7.89404  -11.54953   -9.47909
      H1    -8.58685  -11.21854   -8.85680
       H    -1.18498  -11.83291  -14.91521
       O    -0.55775  -11.23575  -15.35208
      H1    -0.63886  -11.40545  -16.27823
       H   -10.32098  -10.41860  -13.59244
       O   -10.06336   -9.58494  -13.93296
      H1    -9.39225   -9.26361  -13.27152

