180
frame 11 | Written by MDAnalysis XYZWriter (release 2.4.3)
       H   -15.93280    2.00620  -10.03988
       O   -16.28522    2.83220  -10.33789
      H1   -16.11536    2.80950  -11.27854
       H    -9.53335    9.91845  -11.28978
       O   -10.31806   10.41180  -11.59760
      H1   -10.06517   10.61963  -12.51708
       H   -13.89109    9.20738  -11.52416
       O   -14.27863    9.20661  -10.60171
      H1   -13.69638    8.57957  -10.17925
       H   -12.12636    3.57326  -11.70324
       O   -12.42984    2.98470  -12.42746
      H1   -12.79664    3.61539  -13.07104
       H    -9.62727    7.43342  -10.08669
       O   -10.26928    6.88143  -10.51466
      H1   -10.17368    7.13315  -11.45097
       H   -18.59664   10.95239   -5.69004
       O   -17.64946   11.17931   -5.90758
      H1   -17.73623   12.05005   -6.24890
       H   -13.15260    5.06519   -9.52063
       O   -13.74998    5.63227   -9.01419
      H1   -14.54719    5.03887   -9.11076
       H   -18.22268    3.13164   -9.61906
       O   -18.99215    2.57124   -9.37082
      H1   -18.46522    1.79372   -9.09844
       H   -13.82772    0.84279   -6.79663
       O   -14.00155    1.55786   -7.43694
      H1   -14.22317    1.14498   -8.28540
       H   -17.94604   14.85930   -5.08039
       O   -17.72597   14.08322   -4.49629
      H1   -18.07442   14.19337   -3.57316
       H   -12.05384    9.91445  -12.25031
       O   -12.74160    9.58405  -12.86080
      H1   -12.50979    8.64739  -13.08724
       H   -15.08475    3.67442  -13.39932
       O   -15.36545    2.77444  -13.10159
      H1   -14.58620    2.37004  -12.75748
       H   -15.16362   15.22843  -12.55843
       O   -14.76045   15.51339  -11.72392
      H1   -14.92718   16.52935  -11.78239
       H   -13.07595   12.33613  -11.23624
       O   -12.52267   12.86298  -10.64151
      H1   -12.04929   13.44023  -11.24787
       H   -12.43980    6.49644   -5.58313
       O   -11.73081    6.12100   -6.12301
      H1   -11.80079    6.49416   -6.98094
       H   -16.95708    6.72323  -14.56114
       O   -17.06231    6.84138  -15.49208
      H1   -17.91541    6.44625  -15.69150
       H   -14.33399    5.82661  -13.44116
       O   -13.88424    5.10744  -13.94103
      H1   -14.34116    5.15024  -14.81724
       H   -15.12486   12.03039   -5.25029
       O   -15.26668   12.91029   -4.84530
      H1   -16.23921   12.92614   -4.71883
       H   -10.02027   10.64847   -7.58817
       O    -9.58731   10.23953   -6.85468
      H1    -9.62176    9.29598   -6.96671
       H   -14.35530    7.51728   -8.28935
       O   -14.91205    7.87046   -7.58746
      H1   -15.56592    8.33721   -8.20807
       H   -14.79143    6.87975  -17.69744
       O   -15.05579    7.70604  -17.23985
      H1   -15.62146    7.37354  -16.50070
       H   -11.21546   10.19972   -5.50913
       O   -12.09659   10.60224   -5.61668
      H1   -12.25956   10.70863   -6.53941
       H   -13.97416    9.91714   -2.65178
       O   -14.48469    9.50553   -1.93844
      H1   -13.82214    8.89602   -1.52692
       H   -15.56284   11.24932  -15.05812
       O   -16.15789   11.93962  -15.36753
      H1   -16.94817   11.73758  -14.86240
       H   -18.01056    7.40611   -8.77105
       O   -18.89484    7.10405   -8.50257
      H1   -18.59196    6.43398   -7.84626
       H   -16.08073    5.18363   -6.29547
       O   -16.56920    5.99845   -6.37553
      H1   -16.01571    6.62447   -6.86427
       H   -14.79334   10.48642   -6.43866
       O   -15.09410   10.36615   -5.48273
      H1   -16.00738   10.13920   -5.62428
       H   -12.29349   11.00142   -8.93598
       O   -11.43087   10.55918   -8.72081
      H1   -10.97685   10.76836   -9.54331
       H   -18.77935    8.20696  -11.83148
       O   -18.85199    9.10153  -12.24667
      H1   -19.25253    9.74059  -11.59213
       H   -12.16790    3.62379   -5.77516
       O   -11.74957    3.22242   -5.04932
      H1   -11.20337    3.94110   -4.72066
       H   -18.58542   15.12503   -8.57173
       O   -18.81264   14.45613   -7.93190
      H1   -19.36324   13.86131   -8.50042
       H   -15.75049    7.68157  -12.93089
       O   -15.58274    6.74474  -12.77851
      H1   -16.48921    6.47724  -12.57516
       H   -15.05840    2.67307   -6.34888
       O   -15.73743    3.25041   -5.97707
      H1   -15.72678    3.24266   -4.99193
       H   -19.30053   15.16068  -14.27828
       O   -18.55769   15.34327  -13.66770
      H1   -18.59324   14.49939  -13.18344
       H   -13.18970   10.34096  -14.36093
       O   -13.40273   10.87711  -15.11303
      H1   -13.09278   10.31595  -15.83996
       H   -10.22976    7.33203   -5.82333
       O    -9.35800    7.70510   -5.71727
      H1    -8.96187    7.04634   -5.01166
       H   -11.29023    7.24886  -13.73290
       O   -11.86618    7.00077  -13.00244
      H1   -12.27398    6.24927  -13.38475
       H   -18.17424    5.35296  -12.78614
       O   -17.99941    6.08838  -12.14318
      H1   -18.93732    6.00002  -11.71098
       H   -10.73724    3.66844   -9.82554
       O   -11.36134    4.34712  -10.23925
      H1   -10.79289    5.14147  -10.17177
       H   -19.18769   11.62799  -14.70263
       O   -18.58331   11.37565  -13.96490
      H1   -18.73127   10.41460  -13.88823
       H   -11.55361    8.73566   -8.51776
       O   -11.90887    7.86014   -8.37269
      H1   -11.69339    7.32313   -9.15907
       H   -17.56584    1.14285   -4.93079
       O   -17.46294    1.11252   -5.90768
      H1   -16.98711    2.00878   -6.02177
       H   -15.94637   12.59588   -8.83970
       O   -15.32417   13.25757   -9.22589
      H1   -14.57333   13.41547   -8.55484
       H   -19.42837    2.23337   -7.61428
       O   -19.83621    2.13278   -6.76374
      H1   -19.11656    1.75485   -6.21540
       H   -18.49789    4.88549   -4.45823
       O   -18.56827    4.92830   -3.50017
      H1   -19.47699    4.62735   -3.25625
       H   -13.98212   12.18926   -3.65083
       O   -13.29053   11.54464   -3.35810
      H1   -12.96527   11.18761   -4.27516
       H   -12.25827   13.29425   -6.94724
       O   -12.98344   13.07782   -7.60699
      H1   -12.49165   13.09074   -8.44721
       H   -16.00632   15.06234   -9.06494
       O   -16.24818   15.94033   -8.72288
      H1   -16.62269   15.86054   -7.83794
       H   -18.50107   11.14003   -8.64739
       O   -17.55004   11.01774   -8.54560
      H1   -17.49870   11.00886   -7.59204
       H   -18.69237    2.95977  -13.90771
       O   -18.81887    3.92072  -13.73942
      H1   -19.66667    3.97449  -13.35108
       H   -15.20905   12.71904  -11.00377
       O   -15.26415   12.15312  -11.80017
      H1   -15.25482   12.82409  -12.52097
       H   -16.69267   14.84474  -14.13043
       O   -15.79452   14.55220  -14.10323
      H1   -15.93747   13.64076  -14.39262
       H   -13.07614    8.89637   -5.19650
       O   -13.22950    8.06595   -4.74821
      H1   -14.20846    8.12194   -4.58855
       H   -14.20285   10.41637   -9.25656
       O   -14.19057   10.55984   -8.27905
      H1   -14.14316    9.60056   -7.96952
       H   -13.21236   15.12535   -7.70353
       O   -13.21872   16.08638   -7.90610
      H1   -13.95106   16.32899   -7.30116
       H   -15.96956   10.31918  -12.55573
       O   -16.09681    9.47323  -12.99554
      H1   -17.06909    9.39910  -12.80565
       H   -13.34374    4.75239   -4.20469
       O   -13.61278    4.93423   -3.29289
      H1   -14.50568    4.49111   -3.36193
       H   -18.45220   12.45172  -11.82686
       O   -18.62617   13.36795  -11.80102
      H1   -17.99593   13.61647  -11.12395
       H   -16.22306    8.82229  -10.08555
       O   -16.76526    8.50238   -9.36292
      H1   -17.06568    9.33729   -9.03783
       H   -19.62956    6.36388   -5.72291
       O   -19.09385    5.72699   -6.20954
      H1   -18.19284    6.07497   -6.08003

