180
frame 1 | Written by MDAnalysis XYZWriter (release 2.4.3)
       H    -2.34833   -4.60142   -0.36260
       O    -2.13285   -5.43169    0.09870
      H1    -3.00022   -5.63879    0.55192
       H    -5.70123   -8.23738  -11.64253
       O    -6.10035   -8.42115  -10.74320
      H1    -5.86094   -7.63375  -10.22464
       H   -12.69587   -8.69956   -1.78806
       O   -12.43216   -9.30505   -2.52100
      H1   -11.48194   -9.26536   -2.45427
       H    -6.52870   -9.23927   -5.47094
       O    -6.90753   -9.47909   -4.62409
      H1    -7.29691   -8.63779   -4.35914
       H   -10.49041   -3.81031   -4.65480
       O   -11.10123   -4.57116   -4.66013
      H1   -10.49371   -5.19012   -4.15269
       H   -11.30696   -3.12883   -1.06789
       O   -11.09124   -2.22677   -1.30284
      H1   -10.14620   -2.23104   -1.00543
       H    -3.09534   -7.37286   -3.47267
       O    -3.16809   -6.52611   -3.93589
      H1    -3.76692   -6.01340   -3.44927
       H   -10.35342   -8.22974   -9.44704
       O   -10.90103   -7.57162   -9.02905
      H1   -11.17919   -6.99012   -9.77879
       H    -6.23242   -6.14925   -2.99033
       O    -5.84177   -6.35965   -2.13304
      H1    -5.35117   -5.55622   -1.84719
       H    -8.34466  -10.97142   -2.11887
       O    -8.46868  -11.83429   -1.71189
      H1    -7.68361  -11.90058   -1.18922
       H    -9.10253   -4.07664  -10.67417
       O    -8.18058   -4.36082  -10.43652
      H1    -7.67139   -3.49500  -10.51127
       H    -9.92565   -6.83599   -8.06001
       O    -9.30704   -6.46442   -7.34743
      H1    -9.74335   -6.80240   -6.52919
       H    -7.73549   -7.43351   -1.19239
       O    -8.38991   -7.33310   -0.48935
      H1    -8.16880   -6.48851   -0.09143
       H    -9.23723   -9.65039   -8.45029
       O    -9.74987   -9.92036   -7.67925
      H1    -9.17426  -10.69083   -7.42304
       H   -13.32553   -6.74332   -4.57049
       O   -13.23044   -7.63756   -4.93219
      H1   -13.49937   -8.23879   -4.24702
       H    -9.30206   -1.43150    1.33404
       O    -9.07441   -1.11512    0.46074
      H1    -8.08741   -1.24290    0.50414
       H    -4.25980   -4.93289    1.68043
       O    -4.56028   -5.87946    1.55218
      H1    -4.62041   -6.21915    2.48117
       H    -1.92530   -6.36447   -2.89774
       O    -1.24250   -6.56678   -2.26218
      H1    -1.68362   -6.36798   -1.47762
       H    -6.34782   -2.38922    0.33266
       O    -6.44347   -1.86847    1.11670
      H1    -6.03878   -1.00843    0.88427
       H    -7.58391  -12.65415   -4.73288
       O    -6.87636  -12.12129   -5.08934
      H1    -7.16082  -11.20208   -4.90306
       H    -9.90033   -1.41112   -3.51474
       O    -9.13452   -1.60622   -4.04194
      H1    -8.55699   -0.86567   -3.77392
       H   -12.81463  -10.93699   -7.46332
       O   -12.21602  -10.97582   -8.25596
      H1   -11.37091  -10.53367   -8.08078
       H    -3.41966   -2.38419   -5.16635
       O    -3.57021   -3.33211   -5.10534
      H1    -4.22158   -3.48498   -5.87215
       H    -5.36996  -11.37110   -9.84501
       O    -5.54096  -10.53544   -9.23632
      H1    -5.74867   -9.83926   -9.83602
       H    -6.85142  -11.10919   -8.22190
       O    -7.61420  -11.46244   -7.73289
      H1    -7.12570  -11.72366   -6.95008
       H    -7.13234    0.98913   -3.15838
       O    -7.12353    0.15666   -3.72166
      H1    -6.61031   -0.46806   -3.14345
       H    -9.47913   -8.53980   -2.45696
       O    -9.31175   -9.39687   -2.92215
      H1    -9.61012   -9.27977   -3.84738
       H   -11.15725  -12.86087   -5.51299
       O   -10.48708  -12.29917   -5.92512
      H1   -11.02118  -11.87034   -6.58018
       H    -0.52975   -9.51451   -7.12609
       O    -1.48096   -9.63810   -6.96522
      H1    -1.82392   -8.72162   -6.90105
       H    -4.57664   -7.86538   -5.68649
       O    -4.78746   -8.65760   -6.19428
      H1    -3.92776   -8.89468   -6.62405
       H   -11.49425   -7.81302   -5.36386
       O   -10.58157   -8.07762   -5.36442
      H1   -10.45148   -8.61200   -6.15241
       H    -9.46588   -0.38623   -6.04269
       O    -9.84156   -0.35556   -6.91486
      H1   -10.18925    0.51468   -6.81770
       H    -7.21711   -4.94817   -9.01079
       O    -6.91439   -5.08133   -8.10141
      H1    -7.70647   -5.45562   -7.73073
       H   -10.97352   -6.66063   -2.50295
       O   -10.06754   -6.47322   -2.75697
      H1    -9.66873   -6.48002   -1.81406
       H   -11.63780  -12.78561   -1.12656
       O   -11.55560  -12.21376   -1.88696
      H1   -10.62703  -11.93229   -1.86425
       H    -6.26428   -5.35740    0.66089
       O    -7.14489   -4.98592    0.61810
      H1    -7.63113   -5.26587    1.44746
       H   -12.54672   -1.99247   -5.81088
       O   -12.59755   -1.50812   -6.68415
      H1   -11.72674   -1.19092   -6.84713
       H    -5.72412   -6.10851   -8.65322
       O    -5.01625   -6.47927   -9.21021
      H1    -4.73802   -7.10464   -8.51256
       H    -5.24340   -1.16738   -1.83058
       O    -6.02852   -1.72180   -2.02596
      H1    -5.61887   -2.61257   -2.12158
       H   -11.50519  -10.13476    0.37803
       O   -11.33004   -9.18495    0.31080
      H1   -10.43534   -9.15282    0.68584
       H    -7.75218   -9.02541   -0.03148
       O    -7.59931   -9.86268    0.44683
      H1    -6.77214   -9.52828    0.82856
       H    -8.79604   -9.89546  -10.87094
       O    -8.90674   -8.99387  -10.54824
      H1    -7.92253   -8.69160  -10.63367
       H    -2.11003   -3.40279   -7.99233
       O    -2.59049   -4.10300   -8.42339
      H1    -3.16359   -4.47350   -7.73086
       H    -2.11280   -6.59382   -7.53401
       O    -2.61241   -7.01954   -6.80832
      H1    -2.03465   -6.66097   -6.06784
       H    -3.76938   -3.85968   -1.99722
       O    -4.46346   -4.11996   -2.59179
      H1    -4.02223   -3.80984   -3.41271
       H   -11.79151   -7.35564    1.30845
       O   -11.72376   -6.40925    1.58774
      H1   -12.00310   -6.45143    2.51052
       H   -14.16838   -4.80433   -4.98563
       O   -13.80743   -5.06135   -4.12848
      H1   -12.91741   -4.78294   -4.19683
       H    -5.03566  -11.77159   -4.92217
       O    -4.18015  -11.29473   -5.01135
      H1    -4.41970  -10.39077   -5.31293
       H   -13.71817   -7.60825   -6.74691
       O   -13.81809   -8.16311   -7.56173
      H1   -12.87135   -8.34551   -7.74399
       H   -13.08417   -6.40351   -2.38837
       O   -12.57050   -6.59886   -1.62245
      H1   -12.75192   -5.87745   -0.97475
       H    -5.03706   -9.22276   -3.16804
       O    -4.10859   -9.33546   -2.91828
      H1    -3.77393  -10.06012   -3.45166
       H    -8.37896   -3.30125   -4.88705
       O    -8.08212   -4.14815   -5.29060
      H1    -8.79508   -4.38719   -5.87721
       H    -8.25410   -6.51513   -3.81910
       O    -7.39859   -6.50733   -4.30662
      H1    -7.35932   -5.61754   -4.71149
       H    -4.67269   -7.76537    0.09425
       O    -4.67799   -8.68735    0.19412
      H1    -4.78711   -9.04437   -0.68384
       H   -10.07547   -5.24869    2.16596
       O    -9.30790   -4.97227    2.70797
      H1    -9.16039   -5.68202    3.33066
       H    -3.98859   -1.88533  -10.08596
       O    -4.50736   -2.72809   -9.85401
      H1    -3.83234   -3.28574   -9.50078
       H   -12.13271   -2.09653   -2.97028
       O   -12.35147   -1.46306   -3.72374
      H1   -13.27371   -1.29055   -3.41314
       H    -6.20125   -0.68712   -6.55676
       O    -6.37729    0.19914   -6.27518
      H1    -6.45931   -0.04094   -5.29097
       H    -4.95063   -2.42599   -8.10110
       O    -5.34908   -2.23012   -7.23612
      H1    -6.05468   -2.91231   -7.22963
       H    -1.44437   -2.91543   -1.98132
       O    -2.23040   -2.94505   -1.42187
      H1    -2.07783   -2.15350   -0.90981

