180
frame 9 | Written by MDAnalysis XYZWriter (release 2.4.3)
       H   -17.06919  -17.10414    7.32914
       O   -17.27283  -16.25311    6.90994
      H1   -16.50168  -15.67706    7.11661
       H    -7.06054   -8.84275    8.06748
       O    -7.76904   -9.29108    8.61337
      H1    -8.33567   -8.57543    8.89425
       H    -8.76361  -11.73656   10.81705
       O    -9.71853  -11.66952   10.53360
      H1   -10.11688  -10.97956   11.12019
       H   -15.52481  -12.04424    8.97039
       O   -15.21375  -11.61287    9.77798
      H1   -15.67859  -12.00152   10.57213
       H    -8.98109  -13.52033    0.14538
       O    -9.11167  -12.84082    0.82125
      H1    -8.42792  -12.94858    1.53679
       H    -6.40364  -12.46808    3.02383
       O    -6.94930  -13.06062    2.50596
      H1    -6.33309  -13.69147    2.15391
       H    -6.82773   -8.58265   12.22366
       O    -6.30856   -8.59028   11.43767
      H1    -6.85987   -8.09636   10.78639
       H    -9.79802   -9.06721    1.45092
       O   -10.65371   -9.46806    1.66518
      H1   -10.90588   -8.89023    2.35201
       H   -11.12727  -12.95762    1.32433
       O   -11.93444  -12.71906    1.78896
      H1   -11.74787  -12.29461    2.63783
       H   -12.98221  -18.49349    5.34529
       O   -12.01574  -18.36828    5.36784
      H1   -11.99671  -17.88734    6.26426
       H    -5.42280  -10.12106    1.99394
       O    -5.24046  -10.65278    2.80269
      H1    -6.08404  -10.59218    3.28322
       H    -9.23170  -14.38124    3.87230
       O    -9.13440  -13.45032    4.13222
      H1    -8.31149  -13.25132    3.64478
       H    -6.63559  -10.80569   11.21266
       O    -6.96075  -11.66975   11.07026
      H1    -6.97645  -11.64636   10.11322
       H   -12.81346  -14.79266    5.31072
       O   -12.31073  -14.67821    6.15737
      H1   -13.09332  -14.74113    6.75533
       H   -12.76249  -11.34798   13.16172
       O   -12.88116  -10.99929   12.26353
      H1   -13.54657  -10.27015   12.33644
       H    -8.24048   -9.52866   13.46571
       O    -8.37701   -8.65144   12.99868
      H1    -9.19433   -8.76842   12.48973
       H   -15.63781   -6.63655    4.88294
       O   -15.82489   -5.91051    5.44902
      H1   -16.12741   -6.33201    6.26159
       H    -5.28212   -7.18404    7.18324
       O    -5.51604   -8.03996    7.61789
      H1    -5.00877   -7.92747    8.46402
       H   -10.57211   -6.48325    7.00541
       O   -11.31841   -7.11160    7.21735
      H1   -12.06527   -6.59530    6.80746
       H   -15.87767  -12.69976    6.79805
       O   -16.49651  -12.74146    7.61471
      H1   -16.82854  -11.84560    7.49317
       H    -8.05517   -9.89459    5.20864
       O    -8.63863   -9.16610    4.99270
      H1    -9.43358   -9.46746    5.51687
       H   -13.86890  -12.99848   10.18454
       O   -13.71293  -13.96676   10.21686
      H1   -14.36869  -14.28326   10.90060
       H   -16.79877   -9.90736    7.70972
       O   -17.56163  -10.16716    7.14638
      H1   -18.27928  -10.01078    7.73044
       H   -12.27692   -6.60047   10.54155
       O   -11.38875   -6.87661   10.22080
      H1   -11.44520   -6.85154    9.24949
       H   -14.45849  -14.90281    8.75427
       O   -14.47156  -15.60949    8.05539
      H1   -13.91654  -16.34587    8.46479
       H   -10.78573  -17.13734    4.39144
       O   -10.06267  -16.47080    4.26869
      H1    -9.25750  -16.98759    4.47314
       H   -10.30419  -16.92314    7.15269
       O   -11.23229  -16.83298    7.46698
      H1   -11.52735  -16.06120    6.95008
       H   -14.89284  -11.91799   12.76467
       O   -15.76937  -12.05255   12.33784
      H1   -16.30697  -11.43693   12.90861
       H    -8.69290  -12.61917    8.09418
       O    -7.98106  -12.06253    8.42064
      H1    -8.48916  -11.34987    8.83414
       H   -17.10396   -9.49034    5.21401
       O   -16.36638   -9.03807    4.82502
      H1   -15.95917   -9.71693    4.24997
       H   -17.23016   -9.59203   11.11430
       O   -16.50516   -9.35835   10.53967
      H1   -16.09415  -10.26353   10.38006
       H   -16.04309   -7.93981    7.82641
       O   -16.64099   -7.17762    7.82926
      H1   -16.51590   -6.90779    8.74542
       H   -11.36359  -16.12855    9.63319
       O   -11.23453  -16.26292   10.58232
      H1   -11.44350  -15.36969   10.90074
       H   -10.95918   -7.94344   13.07409
       O   -10.77642   -7.16135   13.68302
      H1   -10.03967   -7.57339   14.25379
       H   -17.60498  -14.43705   10.68279
       O   -17.39672  -13.54523   10.23305
      H1   -17.16866  -13.74624    9.29921
       H   -10.57527  -10.88518    3.50027
       O   -11.11154  -11.43917    4.16016
      H1   -10.57611  -12.23856    4.07476
       H   -11.65648  -12.54033   15.29532
       O   -11.24606  -12.14548   14.51801
      H1   -11.19039  -12.90722   13.88487
       H   -12.17128  -11.50492    0.46035
       O   -12.44522  -11.32990   -0.45957
      H1   -12.27336  -10.36120   -0.46904
       H   -14.11432   -9.83788    6.99473
       O   -14.84590   -9.21593    7.12114
      H1   -15.24690   -9.15683    6.22741
       H   -10.26412  -16.09811    2.67891
       O   -10.06033  -16.26445    1.70769
      H1    -9.09810  -16.08683    1.65044
       H   -13.05101  -13.65530    2.57287
       O   -13.72746  -14.31211    2.98309
      H1   -14.07633  -13.72861    3.66924
       H   -11.21583   -8.49423   11.11232
       O   -10.72893   -9.05431   11.72329
      H1   -11.54897   -9.57259   11.89920
       H    -8.31001  -16.86384    7.37397
       O    -8.39981  -16.51344    8.27980
      H1    -8.79604  -15.63547    8.00823
       H   -11.89609  -11.07772    7.26277
       O   -12.55006  -11.20866    6.53201
      H1   -12.02113  -11.22387    5.73768
       H   -10.61248  -13.84169    6.75401
       O    -9.66446  -13.93878    6.91556
      H1    -9.27549  -13.85381    6.03108
       H   -13.97322  -12.56354    5.59205
       O   -14.76518  -13.11991    5.37218
      H1   -15.31133  -12.43133    4.90307
       H   -13.05703   -7.26073    2.56579
       O   -13.20259   -6.37949    2.26469
      H1   -14.15799   -6.26616    2.40521
       H   -13.52918   -4.39302    6.68547
       O   -13.09597   -5.08187    6.19314
      H1   -13.94632   -5.49690    5.87457
       H    -8.65325   -6.47021    8.78168
       O    -8.50551   -6.57258    9.70963
      H1    -9.40788   -6.69869   10.05442
       H    -8.54067   -6.00636    6.41359
       O    -9.08508   -5.68460    7.15441
      H1    -8.74141   -4.79722    7.19473
       H   -11.60622   -5.79378    3.31366
       O   -10.96938   -5.36160    3.88448
      H1   -11.47746   -5.34660    4.69957
       H   -17.28421  -13.01027    3.00112
       O   -17.09365  -12.34248    3.60180
      H1   -17.90138  -12.31289    4.15502
       H    -6.46921  -11.00875    6.81965
       O    -6.26985  -10.55778    5.99447
      H1    -6.02186   -9.65571    6.23235
       H   -11.74504   -7.98662    4.66860
       O   -12.17786   -8.28032    3.85903
      H1   -12.67937   -9.09397    4.06082
       H   -12.06195  -13.69592   11.31777
       O   -11.20504  -13.84833   11.67770
      H1   -10.61103  -13.21504   11.25535
       H   -15.57408  -11.39165    3.53742
       O   -14.76019  -10.85517    3.46604
      H1   -14.85102  -10.25451    2.70525
       H   -10.53246   -9.48381    7.56029
       O   -10.04165  -10.18776    7.01286
      H1    -9.21567  -10.16615    7.48116
       H   -13.83358   -5.38128   11.72992
       O   -13.97249   -5.96923   11.02880
      H1   -13.43755   -5.54492   10.34744
       H    -9.22225   -6.26236    3.86703
       O    -8.31526   -6.40056    4.16374
      H1    -8.39413   -7.33982    4.39794
       H   -14.16764   -7.81284   11.99508
       O   -14.76908   -8.41970   12.39769
      H1   -15.49603   -8.58712   11.75145

