180
frame 6 | Written by MDAnalysis XYZWriter (release 2.4.3)
       H     0.00714  -13.45698   17.41861
       O     0.40333  -12.69433   17.88670
      H1     0.05590  -12.04207   17.24241
       H    -1.86343   -5.70294   17.62508
       O    -1.11802   -5.10328   17.88237
      H1    -1.24644   -4.35965   17.18239
       H   -12.80907   -2.23198   15.94308
       O   -12.70179   -1.26375   15.98425
      H1   -12.16415   -1.14738   15.14604
       H    -7.72605  -11.45130   15.11952
       O    -6.98759  -11.02644   15.57207
      H1    -6.32436  -10.97184   14.82901
       H    -7.16206   -8.17822   12.15653
       O    -6.73815   -7.68179   11.41341
      H1    -7.40745   -7.82229   10.65824
       H    -2.55525    1.19383   16.32102
       O    -2.17584    0.33039   16.49511
      H1    -1.40464    0.57732   16.96807
       H    -6.60942   -4.78061   14.56240
       O    -6.16389   -4.34475   13.85610
      H1    -6.25064   -3.45716   14.17246
       H     1.76862   -1.59291   17.24397
       O     1.46912   -2.24550   16.51602
      H1     1.72552   -3.04898   17.05951
       H   -13.49325   -4.58120   15.55601
       O   -13.14509   -4.14027   16.32842
      H1   -13.81866   -4.29890   17.00261
       H   -12.84568  -12.60740   17.69925
       O   -12.16384  -13.24421   17.35486
      H1   -11.35350  -12.68562   17.40851
       H    -7.60197   -9.49988   14.75102
       O    -8.06981   -8.94843   14.11427
      H1    -8.73295   -9.49544   13.67487
       H    -4.66882  -10.50933   13.20917
       O    -4.73420  -10.60833   14.13776
      H1    -4.30979   -9.77347   14.44670
       H    -3.02113   -8.05263   16.19426
       O    -3.32746   -7.36154   16.79517
      H1    -4.11506   -7.72298   17.15561
       H    -3.28110  -11.68118   17.86305
       O    -3.82037  -12.22849   17.25379
      H1    -4.55760  -11.65272   16.96575
       H    -6.84568   -6.02664   16.82666
       O    -6.59775   -5.63489   17.70625
      H1    -7.49155   -5.35953   17.96771
       H     0.34128   -6.75319   17.34678
       O     1.14844   -7.22823   17.63037
      H1     1.29543   -7.79728   16.85686
       H   -10.87613   -2.47636   19.71824
       O   -10.56357   -2.49010   18.79337
      H1   -11.44015   -2.65767   18.34348
       H    -4.74395   -6.21648   20.08125
       O    -5.24432   -7.00929   19.98351
      H1    -5.90616   -6.66279   19.33835
       H    -7.71069   -7.21573   14.95744
       O    -7.76106   -6.28647   15.22618
      H1    -8.32817   -5.88399   14.47402
       H    -5.24567   -9.42900   18.12768
       O    -5.40984   -9.03870   17.23363
      H1    -6.19553   -9.56099   16.95948
       H    -2.69931   -1.12713   17.56139
       O    -2.80411   -2.06084   17.68278
      H1    -2.49168   -2.38707   16.85255
       H    -5.07176  -13.08734   18.75099
       O    -5.79692  -13.59534   19.12492
      H1    -6.03285  -14.18080   18.38222
       H    -9.38133   -6.73897   16.21741
       O   -10.23269   -6.85146   16.60485
      H1   -10.30816   -7.80847   16.77671
       H   -10.09260   -3.53013   15.64371
       O   -10.13837   -2.70537   15.12510
      H1    -9.72712   -2.03062   15.66701
       H    -5.63560   -3.62209   17.37361
       O    -5.32027   -2.86005   16.86057
      H1    -4.46205   -2.62726   17.17695
       H    -6.21594   -4.86443   12.21218
       O    -6.42234   -5.10650   11.28275
      H1    -6.62656   -6.06495   11.35568
       H    -3.90500  -15.40439   16.20883
       O    -3.06563  -14.85088   16.11765
      H1    -3.33191  -13.92888   16.11783
       H   -14.47392   -8.73810   15.63459
       O   -13.69811   -8.92960   16.19070
      H1   -12.99801   -8.42591   15.70658
       H   -14.27627   -7.56268   19.17306
       O   -13.69809   -7.26737   18.40602
      H1   -13.56305   -8.01572   17.76184
       H    -6.01548   -1.71858   14.28233
       O    -6.70430   -1.71218   14.93082
      H1    -6.24758   -2.09467   15.68358
       H   -11.55326   -7.74434   13.76102
       O   -11.91176   -7.16284   14.42716
      H1   -11.23562   -7.04103   15.06447
       H    -8.14372    0.29620   16.39101
       O    -8.72044   -0.48972   16.39120
      H1    -8.10314   -1.10442   15.84937
       H     1.71945   -9.77197   19.92249
       O     1.14517   -8.93564   19.88142
      H1     1.16768   -8.67456   18.91795
       H    -1.28203   -1.55106   13.56236
       O    -1.98872   -0.95320   13.74426
      H1    -2.07439   -0.98349   14.69543
       H    -8.88866   -2.87811   11.75560
       O    -9.06430   -3.72746   11.31719
      H1    -8.13904   -3.96766   11.13738
       H   -10.06500  -11.33102   17.11848
       O    -9.58170  -12.14016   17.01084
      H1    -9.33093  -12.28512   17.91229
       H    -2.38319   -9.06451   18.06044
       O    -2.02511   -9.97064   17.97788
      H1    -1.22152  -10.01133   17.41385
       H   -13.24066   -6.16302   14.45629
       O   -14.00150   -5.52791   14.28834
      H1   -14.73969   -6.20821   14.07552
       H   -10.95649   -8.22584   11.78460
       O   -10.83082   -8.92493   12.44152
      H1   -11.79382   -9.08975   12.55935
       H    -0.98245   -3.52200   14.95787
       O    -1.07199   -3.19368   15.85480
      H1    -0.16678   -2.84829   16.04134
       H    -0.44646   -7.00643   14.16136
       O    -1.39339   -6.97939   13.98048
      H1    -1.64296   -6.15887   14.41724
       H    -2.48506  -12.21419   15.40648
       O    -1.99147  -12.37464   14.58598
      H1    -1.42238  -13.06229   14.90736
       H    -8.24041   -8.14294   19.22385
       O    -8.23207   -8.76997   18.49419
      H1    -7.46276   -9.41510   18.72413
       H    -9.13994   -1.02759   19.58306
       O    -8.19687   -0.83750   19.68772
      H1    -7.68537   -1.53969   19.26119
       H     1.83751   -5.36077   15.39548
       O     1.03309   -5.64576   15.05833
      H1     0.32018   -5.04159   15.29335
       H    -9.27227   -1.77567   13.50579
       O    -9.18144   -1.33349   12.63724
      H1    -8.47022   -0.68813   12.78736
       H    -9.65959  -12.04346   13.24972
       O    -8.73452  -11.95469   13.47598
      H1    -8.62165  -12.85216   13.81437
       H    -2.64164   -9.79490   14.12486
       O    -2.72690   -9.12906   14.77772
      H1    -2.08615   -8.49775   14.39642
       H    -6.94248    0.29879   18.49581
       O    -6.39553    1.05871   18.21218
      H1    -7.00183    1.78408   18.08111
       H    -0.55471  -10.97701   15.23825
       O    -0.15264  -10.71104   16.11152
      H1     0.57750  -10.07894   15.88147
       H    -3.36707   -1.68663   13.32419
       O    -4.32868   -1.95974   13.21575
      H1    -4.44073   -2.27822   12.34651
       H    -6.12037    1.60515   16.04006
       O    -6.51422    1.33708   15.23203
      H1    -6.40157    0.42210   15.19741
       H    -9.86023   -9.43808   17.92188
       O   -10.72001   -9.79871   17.56243
      H1   -11.29957   -9.71639   18.36043
       H    -3.66233   -6.81643   13.19544
       O    -3.84702   -6.65191   12.26916
      H1    -4.12217   -5.73894   12.41312
       H     1.95617   -5.48839   17.63166
       O     2.33334   -4.58420   17.69699
      H1     3.27927   -4.70293   17.53051
       H    -9.20586   -4.68741   12.58983
       O    -9.47380   -5.22470   13.42255
      H1    -9.63792   -6.06274   12.94013
       H    -9.53739   -4.04551   18.77027
       O    -8.97693   -4.82615   18.75225
      H1    -9.53974   -5.50063   18.37090
       H   -12.95592   -5.43521   18.95158
       O   -12.60347   -4.93071   19.77011
      H1   -12.87167   -4.02469   19.68770
       H    -0.64462   -7.17936   10.56902
       O    -1.51404   -7.50555   10.83045
      H1    -1.57898   -7.23403   11.78451
       H    -3.49627   -5.77272   15.85340
       O    -3.51775   -5.18748   15.08965
      H1    -4.49380   -5.06655   15.06476

