180
frame 2 | Written by MDAnalysis XYZWriter (release 2.4.3)
       H    11.48255  -12.31384   -3.82256
       O    10.67109  -12.72383   -4.14293
      H1    10.57442  -12.12647   -4.95272
       H    15.17758   -9.56803  -12.97796
       O    14.79351   -9.29677  -13.84140
      H1    14.98872   -8.32808  -13.78008
       H    13.20646   -8.38918   -7.54509
       O    13.90279   -8.41103   -8.24822
      H1    14.42733   -7.62470   -8.15771
       H    12.58085  -11.16817   -9.50811
       O    13.48122  -11.17525   -9.09686
      H1    13.54184  -10.33000   -8.62372
       H    14.20874   -4.40778   -4.39765
       O    14.03943   -4.81678   -5.24901
      H1    13.28256   -5.41547   -5.08125
       H     6.73186   -6.69186  -11.85588
       O     7.18754   -5.82476  -11.83938
      H1     7.03976   -5.61645  -12.79189
       H     9.85064   -2.14586  -13.72260
       O     8.92034   -2.17839  -13.36528
      H1     8.68074   -1.31842  -13.81450
       H     9.61184   -4.28975   -5.25453
       O     9.51836   -5.02291   -4.58902
      H1     8.57030   -5.08943   -4.52831
       H    11.74635   -2.06513  -14.43337
       O    11.34091   -2.88068  -14.17305
      H1    10.95823   -3.25212  -14.99238
       H    14.54623   -1.20702  -11.24798
       O    15.02860   -0.44785  -10.96327
      H1    14.51588   -0.14067  -10.21310
       H     8.87603   -2.62499  -11.59494
       O     9.04038   -2.61200  -10.60749
      H1     8.29492   -3.24331  -10.31237
       H    13.67578   -8.61447   -4.51623
       O    13.92242   -9.04935   -3.68619
      H1    13.29252   -9.76881   -3.51172
       H    13.91737   -5.01179   -9.45546
       O    13.56760   -4.10257   -9.45568
      H1    12.55501   -4.24845   -9.58185
       H    16.18900   -6.48303   -7.37440
       O    15.82507   -6.57436   -6.45091
      H1    15.42102   -5.72159   -6.16504
       H     8.03551  -11.91856   -6.34661
       O     7.11514  -11.85861   -6.58079
      H1     7.10676  -11.37417   -7.41472
       H    10.23144  -10.19670  -10.43773
       O    11.14028  -10.45659  -10.66596
      H1    11.00885  -11.34337  -11.07263
       H    13.89913   -3.31851  -10.91530
       O    14.09838   -3.01200  -11.84188
      H1    13.19885   -2.97854  -12.22028
       H     8.03930   -5.95427   -6.88601
       O     7.85631   -5.08304   -7.35558
      H1     8.59515   -4.51942   -7.01302
       H    12.11922   -7.92734  -17.41180
       O    12.81015   -8.24512  -16.76677
      H1    12.37199   -9.00206  -16.27812
       H     5.74948   -7.67869   -6.09946
       O     4.82391   -7.68382   -6.07010
      H1     4.49843   -8.03216   -5.24427
       H     9.57618   -1.01086  -10.46489
       O     9.81653   -0.06978  -10.25520
      H1     8.97673    0.38390  -10.43252
       H     9.31936   -9.16468  -14.71621
       O     8.75191   -8.70899  -15.34413
      H1     8.97345   -7.76962  -15.21808
       H    10.55057  -11.59852   -7.11440
       O    10.01524  -11.25746   -6.42163
      H1    10.14920  -10.28510   -6.40728
       H    11.24651   -6.05819  -15.08472
       O    10.31755   -6.12526  -14.88792
      H1    10.35046   -5.66563  -14.01023
       H    15.69125   -5.84036   -9.86150
       O    16.10431   -5.53151   -9.05309
      H1    16.96095   -5.28689   -9.33618
       H    16.75199   -9.67749   -6.83985
       O    16.89447   -9.15137   -6.01763
      H1    16.33135   -8.40666   -6.08954
       H    18.81016   -7.39076   -8.41004
       O    18.42120   -7.84898   -9.27030
      H1    18.80878   -7.27704   -9.92868
       H    15.27096   -2.66135   -7.74713
       O    15.87973   -2.21572   -8.32161
      H1    16.34029   -3.09550   -8.66558
       H    12.64230   -3.91448  -16.40070
       O    12.63607   -4.84023  -16.13469
      H1    12.99677   -5.30320  -16.92397
       H     9.71127   -4.85865  -15.77225
       O     9.18086   -4.25437  -16.31935
      H1     8.36655   -4.15725  -15.73013
       H    11.43999   -7.31920  -10.17027
       O    10.77604   -7.25847   -9.45554
      H1    10.69863   -6.27974   -9.46231
       H    10.40923   -3.75720   -9.21535
       O    10.96000   -4.35287   -9.74766
      H1    10.59587   -4.42083  -10.64878
       H    11.01176   -5.94816   -4.68747
       O    11.84414   -6.41642   -4.63635
      H1    12.22671   -6.09953   -3.83880
       H     9.36671   -8.39908  -10.08814
       O     8.83120   -9.00202  -10.58645
      H1     8.38326   -8.32573  -11.13416
       H     5.68126   -8.72963  -13.02699
       O     6.55190   -9.06259  -13.23109
      H1     6.78407   -8.51872  -14.04971
       H    15.20823   -6.15185  -14.00551
       O    15.72774   -6.67242  -13.39566
      H1    16.54535   -6.20552  -13.29553
       H    10.48308  -12.15450  -15.64595
       O     9.80503  -12.68152  -15.19450
      H1     9.24207  -12.02943  -14.80911
       H     9.90684   -9.62843   -3.78324
       O     9.31103   -9.18118   -4.39344
      H1     8.56623   -9.68719   -4.02544
       H    14.70881   -5.05447  -15.74374
       O    15.52951   -4.76177  -15.34001
      H1    16.13500   -5.44795  -15.61779
       H    12.17411  -10.76988  -16.63906
       O    11.35975  -10.62627  -16.14065
      H1    10.69812  -10.43254  -16.81900
       H     9.42978   -5.66428  -11.84996
       O    10.27508   -5.62241  -12.26209
      H1    10.58439   -6.53197  -12.11258
       H    17.27684  -10.76166   -8.69411
       O    16.70341   -9.97214   -8.83863
      H1    17.47316   -9.30332   -9.01466
       H    13.52784   -3.57703   -6.37108
       O    13.50977   -2.91355   -7.04040
      H1    13.56182   -3.45947   -7.84281
       H    10.96686   -3.11799   -6.53317
       O    10.05180   -3.47342   -6.46525
      H1     9.56173   -2.60624   -6.56926
       H    11.10577   -7.77122   -7.26983
       O    11.46464   -8.44034   -6.68972
      H1    11.27771   -7.98545   -5.85128
       H    17.66852   -8.39626  -15.23214
       O    17.69745   -8.49308  -14.25808
      H1    16.79362   -8.07154  -14.23241
       H     6.82636   -4.71723  -10.54709
       O     6.81444   -4.07019   -9.79577
      H1     7.10702   -4.57139   -9.04405
       H    12.12858  -13.14669   -8.70787
       O    11.23772  -12.86177   -8.90979
      H1    10.63307  -13.54002   -8.57744
       H     6.45440   -3.45280  -14.64477
       O     7.10606   -4.17140  -14.46861
      H1     7.78787   -3.71389  -13.97322
       H     7.01454  -10.73977  -13.74343
       O     7.32131  -11.48717  -14.27842
      H1     7.18025  -12.14187  -13.52962
       H    10.84339  -10.28423  -14.57880
       O    10.44674  -10.03998  -13.71160
      H1    11.06748   -9.42331  -13.27544
       H     5.21448   -7.09247   -9.80805
       O     5.46234   -7.67921  -10.46133
      H1     4.68651   -7.88115  -11.00125
       H    13.60512  -12.68876   -8.20138
       O    13.82304  -13.65108   -8.10885
      H1    13.73042  -13.84104   -7.15003
       H    15.82524   -9.84679  -10.30080
       O    15.15111   -9.61521  -10.95639
      H1    14.38652  -10.03698  -10.66243
       H     7.00821   -8.85162   -9.19616
       O     7.00280   -9.48682   -8.46732
      H1     6.05295   -9.75858   -8.44114
       H    14.79160   -6.82419  -11.61367
       O    14.18592   -6.80340  -10.85060
      H1    14.30378   -7.70599  -10.42196
       H    12.92855   -7.77910  -11.62959
       O    11.95225   -7.87876  -11.75144
      H1    11.73464   -8.79887  -11.68685
       H     7.58088   -8.63507   -6.80650
       O     7.58190   -7.90256   -6.18094
      H1     8.24196   -8.21237   -5.55538
       H    10.33587  -13.45328  -10.32243
       O     9.83501  -13.49572  -11.14770
      H1    10.42616  -14.12146  -11.60460
       H     8.45059  -12.40197  -10.94623
       O     7.61064  -11.88356  -11.10058
      H1     8.05392  -11.02404  -11.28162

