180
frame 9 | Written by MDAnalysis XYZWriter (release 2.4.3)
       H   -17.06919  -17.10414    7.32914
       O   -17.27283  -16.25311    6.90994
      H1   -16.50168  -15.67706    7.11661
       H   -16.81629  -16.03306    5.14240
       O   -16.59984  -16.01852    4.22224
      H1   -17.30260  -16.52999    3.77598
       H    -9.45431  -17.16222   13.99539
       O    -9.21103  -17.73617   14.75416
      H1    -8.24805  -17.85598   14.70592
       H    -8.76361  -11.73656   10.81705
       O    -9.71853  -11.66952   10.53360
      H1   -10.11688  -10.97956   11.12019
       H   -15.52481  -12.04424    8.97039
       O   -15.21375  -11.61287    9.77798
      H1   -15.67859  -12.00152   10.57213
       H    -8.98109  -13.52033    0.14538
       O    -9.11167  -12.84082    0.82125
      H1    -8.42792  -12.94858    1.53679
       H    -6.40364  -12.46808    3.02383
       O    -6.94930  -13.06062    2.50596
      H1    -6.33309  -13.69147    2.15391
       H    -5.49314  -16.73484    9.76763
       O    -6.20714  -17.35606    9.87896
      H1    -6.87063  -16.94153    9.36288
       H   -11.12727  -12.95762    1.32433
       O   -11.93444  -12.71906    1.78896
      H1   -11.74787  -12.29461    2.63783
       H   -12.98221  -18.49349    5.34529
       O   -12.01574  -18.36828    5.36784
      H1   -11.99671  -17.88734    6.26426
       H    -9.23170  -14.38124    3.87230
       O    -9.13440  -13.45032    4.13222
      H1    -8.31149  -13.25132    3.64478
       H    -6.63559  -10.80569   11.21266
       O    -6.96075  -11.66975   11.07026
      H1    -6.97645  -11.64636   10.11322
       H   -12.81346  -14.79266    5.31072
       O   -12.31073  -14.67821    6.15737
      H1   -13.09332  -14.74113    6.75533
       H   -12.76249  -11.34798   13.16172
       O   -12.88116  -10.99929   12.26353
      H1   -13.54657  -10.27015   12.33644
       H    -8.04189  -16.95122   12.29280
       O    -8.83296  -16.38288   12.21363
      H1    -9.23384  -16.62350   11.35780
       H    -6.92341  -17.70955    1.34692
       O    -6.62050  -18.14358    0.51700
      H1    -6.24026  -17.44326   -0.06146
       H    -6.34823  -16.33308    2.60073
       O    -7.29453  -16.57370    2.49218
      H1    -7.42492  -17.08324    3.35369
       H    -4.66793  -18.14260    7.22099
       O    -4.57409  -18.80306    7.97324
      H1    -5.28922  -18.56253    8.56377
       H   -15.36920  -17.61056    4.17973
       O   -14.93435  -18.40226    3.87354
      H1   -14.89079  -18.87313    4.73870
       H   -15.87767  -12.69976    6.79805
       O   -16.49651  -12.74146    7.61471
      H1   -16.82854  -11.84560    7.49317
       H    -8.05517   -9.89459    5.20864
       O    -8.63863   -9.16610    4.99270
      H1    -9.43358   -9.46746    5.51687
       H   -13.86890  -12.99848   10.18454
       O   -13.71293  -13.96676   10.21686
      H1   -14.36869  -14.28326   10.90060
       H   -13.38067  -19.13806   13.59705
       O   -14.29341  -19.04301   13.79835
      H1   -14.57532  -18.19617   13.30842
       H   -14.45849  -14.90281    8.75427
       O   -14.47156  -15.60949    8.05539
      H1   -13.91654  -16.34587    8.46479
       H   -10.78573  -17.13734    4.39144
       O   -10.06267  -16.47080    4.26869
      H1    -9.25750  -16.98759    4.47314
       H   -10.30419  -16.92314    7.15269
       O   -11.23229  -16.83298    7.46698
      H1   -11.52735  -16.06120    6.95008
       H    -8.69290  -12.61917    8.09418
       O    -7.98106  -12.06253    8.42064
      H1    -8.48916  -11.34987    8.83414
       H   -16.62220  -19.08768    8.80946
       O   -16.01963  -18.40131    8.48488
      H1   -15.47066  -18.49350    9.27256
       H   -11.36359  -16.12855    9.63319
       O   -11.23453  -16.26292   10.58232
      H1   -11.44350  -15.36969   10.90074
       H    -6.12341  -14.69033   13.48853
       O    -6.91597  -14.76575   14.06119
      H1    -7.61945  -15.01035   13.45683
       H   -15.10433  -17.36135   11.44101
       O   -15.68515  -17.32146   12.19697
      H1   -16.46509  -16.83524   11.82797
       H   -17.60498  -14.43705   10.68279
       O   -17.39672  -13.54523   10.23305
      H1   -17.16866  -13.74624    9.29921
       H   -10.57527  -10.88518    3.50027
       O   -11.11154  -11.43917    4.16016
      H1   -10.57611  -12.23856    4.07476
       H   -11.65648  -12.54033   15.29532
       O   -11.24606  -12.14548   14.51801
      H1   -11.19039  -12.90722   13.88487
       H    -5.09024  -16.09206    6.09796
       O    -5.31521  -17.03357    5.86593
      H1    -4.45538  -17.39697    5.64879
       H   -15.53626  -15.22165   13.45140
       O   -14.93842  -14.45467   13.55434
      H1   -15.58234  -13.78302   13.29738
       H    -8.25000  -19.06288    8.89430
       O    -7.64523  -19.77476    9.06107
      H1    -7.47426  -19.79330   10.02101
       H   -14.11432   -9.83788    6.99473
       O   -14.84590   -9.21593    7.12114
      H1   -15.24690   -9.15683    6.22741
       H   -10.26412  -16.09811    2.67891
       O   -10.06033  -16.26445    1.70769
      H1    -9.09810  -16.08683    1.65044
       H   -13.05101  -13.65530    2.57287
       O   -13.72746  -14.31211    2.98309
      H1   -14.07633  -13.72861    3.66924
       H    -8.31001  -16.86384    7.37397
       O    -8.39981  -16.51344    8.27980
      H1    -8.79604  -15.63547    8.00823
       H   -11.89609  -11.07772    7.26277
       O   -12.55006  -11.20866    6.53201
      H1   -12.02113  -11.22387    5.73768
       H   -18.87203  -19.06256    6.80088
       O   -18.44992  -19.19574    5.94638
      H1   -18.77934  -18.45877    5.41301
       H   -10.61248  -13.84169    6.75401
       O    -9.66446  -13.93878    6.91556
      H1    -9.27549  -13.85381    6.03108
       H   -13.97322  -12.56354    5.59205
       O   -14.76518  -13.11991    5.37218
      H1   -15.31133  -12.43133    4.90307
       H    -5.30769  -13.74352    5.94639
       O    -4.83946  -14.38330    5.41895
      H1    -4.03076  -13.78766    5.20601
       H   -12.83951  -17.52745   -0.78429
       O   -13.18841  -18.07923   -0.01560
      H1   -12.32726  -18.36305    0.37783
       H   -12.82402  -15.18816    0.26037
       O   -11.99486  -15.27617   -0.14523
      H1   -11.49049  -15.58267    0.63749
       H   -10.41311  -19.83410    0.64939
       O   -10.92635  -19.08207    1.08928
      H1   -10.34612  -18.33755    1.16743
       H   -17.28421  -13.01027    3.00112
       O   -17.09365  -12.34248    3.60180
      H1   -17.90138  -12.31289    4.15502
       H    -6.46921  -11.00875    6.81965
       O    -6.26985  -10.55778    5.99447
      H1    -6.02186   -9.65571    6.23235
       H   -11.74504   -7.98662    4.66860
       O   -12.17786   -8.28032    3.85903
      H1   -12.67937   -9.09397    4.06082
       H   -12.06195  -13.69592   11.31777
       O   -11.20504  -13.84833   11.67770
      H1   -10.61103  -13.21504   11.25535
       H   -15.57408  -11.39165    3.53742
       O   -14.76019  -10.85517    3.46604
      H1   -14.85102  -10.25451    2.70525
       H   -13.79508  -19.01045   10.75843
       O   -13.57316  -18.02773   10.59545
      H1   -12.79213  -17.73911   11.13126
       H    -6.76848  -18.50323   12.45851
       O    -6.61316  -17.59957   12.73647
      H1    -6.44239  -17.11285   11.88717
       H   -10.53246   -9.48381    7.56029
       O   -10.04165  -10.18776    7.01286
      H1    -9.21567  -10.16615    7.48116
       H    -7.31470  -17.64560    5.33932
       O    -7.93876  -18.07461    4.79560
      H1    -8.27995  -18.75544    5.31879
       H   -15.63054  -13.95895    0.87898
       O   -16.00109  -14.79486    1.16647
      H1   -15.65627  -14.93738    2.04466
       H    -9.82875  -19.76420    7.32535
       O    -9.49324  -19.20112    6.61683
      H1   -10.26724  -19.02263    6.03914

