180
frame 0 | Written by MDAnalysis XYZWriter (release 2.4.3)
       H    -1.80891    4.52320    4.80939
       O    -2.16440    5.14259    4.17041
      H1    -2.80600    5.59005    4.64982
       H     0.60250   -0.85471    4.91952
       O     0.14878   -0.57603    4.06845
      H1    -0.76172   -0.70857    4.35474
       H    -8.03728    2.42511    7.93920
       O    -7.70985    2.14252    8.81587
      H1    -8.29685    2.67941    9.42338
       H     0.50935   -3.87328    5.67724
       O     1.25591   -4.52676    5.65572
      H1     1.54481   -4.65269    6.61258
       H    -0.80785    0.54656   -0.39531
       O    -1.12291   -0.27033    0.06554
      H1    -1.69470    0.15385    0.70995
       H    -5.07850   -6.31688    4.09823
       O    -5.47186   -5.55477    3.63712
      H1    -5.60878   -4.94563    4.39758
       H    -4.37704   -3.91033   10.58577
       O    -5.05839   -3.96878    9.91417
      H1    -4.74770   -4.73498    9.44948
       H    -0.77318    0.39662    6.60244
       O    -0.29778    0.48124    7.46262
      H1    -0.23074    1.42633    7.62499
       H   -10.07299   -1.39827    7.44305
       O   -10.62843   -1.62341    6.73466
      H1   -10.01021   -2.01288    6.12801
       H    -2.40860    4.58384    8.75785
       O    -2.99980    4.05380    8.16920
      H1    -3.79485    4.63956    8.11987
       H    -0.44399    3.50829    9.53550
       O     0.06311    3.01400    8.90483
      H1     0.93160    3.38526    8.74965
       H    -5.32870    5.79560    8.13517
       O    -4.62678    6.21747    7.61476
      H1    -4.11777    6.74666    8.19578
       H    -3.34736   -8.19166    4.99368
       O    -3.63228   -7.69504    4.18937
      H1    -3.05152   -6.95098    4.16498
       H    -6.23819   -4.61145   12.78770
       O    -6.35663   -3.69584   12.46230
      H1    -6.11993   -3.76789   11.48840
       H    -1.31087   -1.25416    8.11069
       O    -1.23799   -2.16178    8.44186
      H1    -1.32298   -1.96762    9.41638
       H    -0.66938   -6.10063    4.24467
       O    -1.26833   -5.45230    4.60817
      H1    -0.60440   -5.13036    5.34700
       H     1.45296    0.77406    4.21867
       O     2.15123    1.28196    4.56768
      H1     2.97921    0.85169    4.23123
       H    -0.90735   -7.73032    7.13927
       O    -1.75068   -7.46613    7.49635
      H1    -1.97103   -6.56015    7.17829
       H    -5.77309    3.90557   10.54706
       O    -5.70599    3.79086    9.58448
      H1    -6.37378    3.22244    9.20199
       H   -10.35460    2.48376    7.99647
       O   -10.29908    3.40517    7.58746
      H1   -10.18564    3.22716    6.56732
       H    -7.34196    1.96521    5.96128
       O    -7.73617    1.07925    5.84331
      H1    -8.66817    1.25501    5.66019
       H    -3.44463   -3.07184    1.50030
       O    -3.89890   -3.26750    0.65264
      H1    -4.76363   -2.82738    0.76853
       H    -3.78076    2.81291    6.10081
       O    -4.61103    2.31691    6.15378
      H1    -4.46680    1.51609    5.61884
       H   -11.23012   -5.94148    6.54620
       O   -10.29432   -6.03284    6.35209
      H1   -10.09051   -5.15954    6.06066
       H    -8.53383   -3.51280    2.65001
       O    -8.43857   -2.58270    2.82954
      H1    -7.51707   -2.42070    2.47255
       H    -7.95454    4.28953    5.08784
       O    -7.04120    4.52719    5.35060
      H1    -6.77733    5.18252    4.72152
       H    -7.16583    2.58417    3.23683
       O    -7.65855    1.81899    2.79073
      H1    -8.18725    1.41377    3.46022
       H    -9.17231   -1.96181    0.88100
       O    -9.34449   -1.42220    0.08667
      H1    -8.46009   -1.36112   -0.24185
       H    -4.84925   -5.28048    0.70735
       O    -4.83392   -6.20559    0.89308
      H1    -5.26418   -6.21388    1.74570
       H    -6.45101   -2.21160    0.14805
       O    -6.45420   -2.08072    1.09904
      H1    -6.36264   -1.09877    1.17920
       H   -12.74530    0.72196    5.45446
       O   -12.24005    0.81447    6.29284
      H1   -11.56048    0.09197    6.14198
       H    -3.22009   -0.46284    4.35101
       O    -2.58081   -1.07901    4.66308
      H1    -2.79199   -1.92815    4.35886
       H    -1.33521    3.36174    6.99364
       O    -1.12681    3.47970    6.04442
      H1    -0.27542    3.91815    6.12531
       H    -6.14049   -1.22862    8.98410
       O    -6.62683   -0.60379    9.56425
      H1    -7.07798    0.04644    8.96642
       H    -9.73498   -0.06680    9.88646
       O    -9.69147    0.07450    8.96147
      H1    -8.85158    0.54752    8.84583
       H    -0.22160   -1.42560    1.15674
       O     0.03123   -2.11869    1.83638
      H1     0.01177   -1.50929    2.56644
       H    -9.60791    0.34991    0.55382
       O    -9.94314    1.19966    0.83552
      H1    -9.37725    1.34264    1.61648
       H    -6.43835   -5.51622    0.10519
       O    -7.31634   -5.04005    0.03515
      H1    -7.54129   -4.98880    0.97582
       H    -7.73147   -2.54202    9.19779
       O    -7.52361   -3.42905    8.93991
      H1    -6.65602   -3.63035    9.31558
       H    -1.65327   -3.18534    2.71227
       O    -2.49021   -3.23867    3.16633
      H1    -2.46032   -4.24873    3.25839
       H    -5.60776    0.65147   12.43381
       O    -6.36578    1.13617   12.05115
      H1    -6.23603    1.14980   11.09877
       H     0.87089   -2.20671    8.85272
       O     1.52144   -2.18305    9.56313
      H1     2.32115   -2.49531    9.06443
       H    -1.90197    2.57786    4.02347
       O    -2.67754    2.01175    3.73556
      H1    -3.44910    2.58605    3.73272
       H     0.27467   -5.39654    9.70816
       O    -0.64407   -5.46628    9.83905
      H1    -0.95593   -5.24780    8.94492
       H     1.12170   -0.87618    6.87168
       O     1.72467   -1.10332    6.16595
      H1     2.16964   -0.23643    6.02463
       H    -9.05918   -3.09531    4.37547
       O    -9.41456   -3.63773    5.10965
      H1    -8.58527   -4.16305    5.24946
       H    -6.98129   -4.39754    7.27344
       O    -6.72517   -4.88839    6.50375
      H1    -7.17394   -5.75609    6.56356
       H   -10.30339    3.47905    4.29251
       O    -9.69051    3.87622    5.03612
      H1   -10.13074    4.76829    4.96393
       H    -9.04218   -1.54518   11.48370
       O    -8.99926   -0.56045   11.51911
      H1    -8.02289   -0.46924   11.43519
       H    -4.30811   -6.39387    7.96658
       O    -4.09437   -5.63545    7.39292
      H1    -4.98717   -5.38516    7.01637
       H    -2.58733   -0.09703   10.48021
       O    -1.98797   -0.82466   10.78335
      H1    -1.14583   -0.34569   10.60350
       H    -6.11298    0.12250    5.40550
       O    -5.29487   -0.27941    5.10209
      H1    -5.05683   -0.71072    5.94774
       H    -2.32109   -4.17034    6.64293
       O    -1.43946   -4.36073    7.05291
      H1    -1.36076   -3.58341    7.64390
       H    -4.85329    0.76178    1.17263
       O    -5.74436    0.75939    0.81769
      H1    -6.34706    1.21363    1.45771
       H    -9.60256   -5.75240    2.14621
       O    -8.75865   -5.36634    2.51630
      H1    -8.53960   -6.07078    3.17204
       H    -2.90903    1.69562    2.19453
       O    -3.05710    1.30178    1.28281
      H1    -3.22667    2.11136    0.82596
       H   -10.45916    1.45539    3.55030
       O    -9.94916    0.65772    3.83755
      H1   -10.56436   -0.02295    3.54258
       H    -3.32094    2.65294    9.26329
       O    -3.39910    1.78355    9.74473
      H1    -4.09999    1.98903   10.36422
       H    -9.01984   -3.71993   12.09390
       O    -9.33308   -3.50853   11.20555
      H1    -8.55904   -3.57213   10.55170
       H    -5.42687    3.16421    4.56630
       O    -5.13591    3.22519    3.64989
      H1    -5.30986    4.15978    3.61211

