180
frame 1 | Written by MDAnalysis XYZWriter (release 2.4.3)
       H     8.43510   10.53262    2.63771
       O     8.08790   10.76661    3.53023
      H1     8.91257   11.19749    3.81896
       H    14.97653    5.33088    4.21929
       O    14.56559    6.15204    4.43977
      H1    13.63250    5.83552    4.36491
       H     6.10592    0.96299   -3.53010
       O     5.23297    1.36044   -3.45497
      H1     4.81377    0.47200   -3.44671
       H     5.90031    3.39073   -4.60907
       O     6.20236    4.31518   -4.59624
      H1     5.64652    4.66802   -3.86373
       H     6.08855    8.66349   -4.52880
       O     5.56493    7.86300   -4.80709
      H1     4.64049    8.15024   -4.55155
       H     6.52964   -0.47473    1.81546
       O     7.42361   -0.04234    1.79557
      H1     7.77088   -0.65101    2.49985
       H    14.96625    3.36202   -1.05650
       O    15.50315    3.21706   -0.26678
      H1    16.01829    2.39349   -0.48462
       H    12.97630    2.99414   -6.33591
       O    13.05149    2.20974   -5.78725
      H1    12.83761    1.58972   -6.48716
       H    12.40069    6.52607   -5.62793
       O    11.92226    7.35047   -5.38041
      H1    12.46275    7.69508   -4.68330
       H    15.40963   -0.01251   -2.75532
       O    14.79489   -0.19158   -2.05373
      H1    14.09413    0.37704   -2.37877
       H    13.68646    5.27158   -1.93637
       O    13.87089    4.43093   -2.37729
      H1    12.95892    4.31234   -2.73505
       H     8.05780    4.81228   -4.79773
       O     8.97873    4.95885   -4.50643
      H1     9.57512    4.77087   -5.27658
       H    10.07801    5.10868   -7.46395
       O    10.66373    4.39444   -7.12129
      H1    10.03316    3.70324   -6.92349
       H    10.19989    8.10959   -4.14252
       O     9.69127    7.84610   -3.39838
      H1     9.61586    6.88302   -3.39897
       H     6.39506    6.21832    1.85414
       O     6.26365    6.02147    2.76159
      H1     5.61898    5.34715    2.66271
       H    14.64338    0.94266    0.69742
       O    13.95999    1.45178    1.14302
      H1    14.13532    2.35606    0.76655
       H    13.38411    9.55173   -4.31509
       O    13.79974    8.96364   -3.64857
      H1    13.27586    9.24333   -2.82128
       H     6.81285    1.35819   -0.96346
       O     5.96255    1.89224   -0.92854
      H1     5.68414    1.72390   -1.80332
       H     5.45600    6.77222   -3.11221
       O     4.99807    6.33306   -2.38452
      H1     5.57276    6.54692   -1.63643
       H    12.22969    8.49111    1.78326
       O    13.13858    8.83022    1.87162
      H1    13.35010    9.04173    0.93367
       H     8.88729    4.36323    0.52401
       O     8.98345    4.75624   -0.38453
      H1     9.82974    5.20496   -0.22145
       H    10.46122    3.72282   -1.76608
       O    10.80795    3.91529   -2.62900
      H1    10.07141    4.35664   -3.02175
       H    12.27530    4.51839    4.92428
       O    12.71314    4.10436    4.13459
      H1    12.83843    3.17286    4.48298
       H    12.07026    1.78645    0.22430
       O    11.29446    2.06537   -0.21077
      H1    10.68308    2.24707    0.52860
       H     6.83332    7.39792   -0.07377
       O     6.46609    6.50347   -0.08768
      H1     7.25019    5.95478   -0.22858
       H     7.74012    8.73139    3.92780
       O     8.14016    7.89624    4.03853
      H1     7.55368    7.37446    3.48141
       H    14.76839    5.59880    2.02457
       O    14.57329    6.41918    1.46555
      H1    14.26151    7.07807    2.11541
       H     3.68000    3.83811    3.11297
       O     4.55933    3.63559    2.76950
      H1     4.39310    3.13850    1.99133
       H    10.73021   -1.39560    0.92325
       O    10.53133   -1.22516    1.88143
      H1    11.23636   -0.61429    2.10777
       H    10.07154    2.36503   -5.43407
       O     9.23964    2.25489   -5.91333
      H1     9.44173    1.55015   -6.50948
       H     9.95840    2.48020    3.09164
       O     9.63115    2.14745    2.16848
      H1     8.79142    1.83080    2.46268
       H     2.53994    7.35469    1.59889
       O     1.96354    6.59846    1.71475
      H1     2.21928    6.15983    2.56211
       H    10.83932    6.65164    2.67719
       O    10.91951    7.50629    3.13509
      H1    10.04271    7.93980    3.16565
       H    14.99922    6.85348   -1.21833
       O    14.06614    6.75931   -1.07179
      H1    14.03917    6.63896   -0.08639
       H     2.96559    4.76143   -0.75149
       O     2.17771    5.37572   -0.88186
      H1     2.17102    5.75657    0.02149
       H     4.51535    5.69489    5.10674
       O     3.88629    6.31566    4.64252
      H1     3.54395    6.88224    5.34764
       H     9.82921    9.15073   -1.94490
       O    10.19311    9.44508   -1.05569
      H1    10.40914   10.36118   -1.18034
       H    11.69966   -0.00654   -1.05465
       O    11.47701   -0.90796   -0.71757
      H1    11.83032   -1.40422   -1.45497
       H    11.22757   11.39204    1.91452
       O    11.90511   11.20143    2.56454
      H1    12.30146   10.39544    2.13586
       H     7.90863   -1.53869   -0.20395
       O     7.84351   -2.49034   -0.09903
      H1     8.76855   -2.74474   -0.32660
       H     8.37331   -0.91088   -3.40157
       O     8.24728   -1.83273   -3.51821
      H1     8.84430   -2.23560   -2.80473
       H    11.69504    4.41902    2.13147
       O    11.67996    5.27241    1.65907
      H1    12.63882    5.45653    1.76936
       H     5.81024    9.20098    4.51340
       O     5.42727    8.95278    3.64850
      H1     5.11023    8.02727    3.72088
       H     7.83741   10.56369   -3.83410
       O     7.51179    9.70547   -3.55006
      H1     8.35445    9.18633   -3.57006
       H     6.32603    9.32088   -2.10603
       O     5.89830    9.12944   -1.23513
      H1     5.75305   10.01007   -0.89073
       H    11.41242    6.03076    6.48691
       O    11.98679    6.41758    5.76049
      H1    11.30042    6.86588    5.20916
       H    12.96738    1.83184   -3.89214
       O    12.67731    1.21982   -3.19726
      H1    11.73845    1.39842   -3.20332
       H     8.81175    9.81359    0.03909
       O     8.18331   10.14903    0.71876
      H1     7.98255   11.06884    0.41921
       H     3.83433    8.70441   -0.61509
       O     2.99633    8.36690   -0.29714
      H1     3.13119    7.41596   -0.33470
       H    12.12564    9.02323   -1.08869
       O    13.06210    9.19375   -0.93217
      H1    13.44051    8.30179   -0.90129
       H     9.40898    3.48619    5.65838
       O    10.09759    2.76480    5.55277
      H1    10.48858    2.70826    6.45361
       H     5.20751    4.57986   -1.47534
       O     4.45865    4.03724   -1.10299
      H1     4.93183    3.15755   -0.99668
       H     3.36366   -0.34665    0.08927
       O     3.60664    0.47283   -0.47661
      H1     4.44166    0.63866   -0.05874
       H     8.29009    1.94587   -2.81249
       O     8.20967    1.29520   -3.52377
      H1     8.42879    1.81269   -4.34731
       H     7.87773    7.98240    6.05057
       O     7.07006    7.77636    6.52009
      H1     6.72221    7.26637    5.78182
       H     7.98784    0.27816    0.40420
       O     8.27516    0.46415   -0.54077
      H1     9.15005    0.93135   -0.37264
       H    12.66975    1.23374    6.17065
       O    12.78444    1.53515    5.22472
      H1    12.08470    0.89470    4.88333
       H     8.66715    5.55586    6.08444
       O     8.32395    4.82671    5.65594
      H1     8.16390    5.00163    4.71141
       H    13.35690    0.44729    2.45125
       O    12.77063   -0.13733    2.91533
      H1    13.09025   -1.02996    2.67661
       H     8.25889    0.87757    5.59609
       O     7.63542    0.23463    6.02974
      H1     7.69298   -0.57469    5.55877

