180
frame 7 | Written by MDAnalysis XYZWriter (release 2.4.3)
       H    -8.78157   10.51539  -13.17231
       O    -9.56845   10.92310  -12.78456
      H1    -9.40450   11.87960  -12.82769
       H   -13.09420    9.66402  -11.40971
       O   -13.03611    9.30866  -10.48649
      H1   -12.08471    9.18146  -10.35989
       H   -12.23182    3.92680  -10.71045
       O   -12.98200    3.53957  -11.19530
      H1   -13.69889    4.17186  -11.04494
       H    -9.79308    7.70449  -10.38573
       O   -10.07427    6.81358  -10.63031
      H1    -9.89066    6.72813  -11.59482
       H   -13.52795    9.95360  -19.00726
       O   -14.10985    9.95675  -19.81206
      H1   -14.93495    9.59907  -19.38173
       H   -11.92534    9.76750  -13.48094
       O   -12.81171    9.82798  -13.19068
      H1   -13.05340    8.87768  -13.27440
       H    -4.89079    6.48178  -18.30367
       O    -4.75118    5.50167  -18.40546
      H1    -4.18172    5.43705  -17.65082
       H    -3.45934    5.07561  -12.70402
       O    -3.55877    4.57485  -13.47846
      H1    -4.54484    4.73892  -13.62750
       H    -9.64034   13.49178  -15.44176
       O    -9.88561   13.37272  -16.38486
      H1   -10.82955   13.62292  -16.39514
       H    -6.13634    4.72497  -15.65632
       O    -5.96739    5.24700  -14.85819
      H1    -6.77259    5.11679  -14.32225
       H    -4.26388    7.35973  -15.54273
       O    -4.01129    8.16991  -14.99223
      H1    -4.41598    8.88531  -15.54883
       H   -13.30825   13.48728  -11.40534
       O   -13.12302   12.56030  -11.37788
      H1   -12.54734   12.35673  -12.12105
       H   -17.06609    5.87458  -14.74547
       O   -17.81700    5.82024  -15.39340
      H1   -18.44296    5.82692  -14.63362
       H   -14.96424    5.76119  -13.34295
       O   -15.70092    5.35699  -13.81115
      H1   -15.32544    5.01180  -14.65145
       H   -10.25439    8.57501  -16.30021
       O    -9.69070    8.69095  -15.54103
      H1    -9.30933    9.56757  -15.71622
       H    -7.01102    8.84586  -11.33592
       O    -7.44519    9.47320  -10.68723
      H1    -6.87738    9.16379   -9.95432
       H    -6.87961   11.32780  -10.68135
       O    -6.26137   12.11404  -10.75042
      H1    -6.72937   12.55815  -11.50263
       H    -5.31748    9.59242  -17.08455
       O    -5.17285   10.53142  -16.82827
      H1    -6.13098   10.74728  -16.83691
       H    -7.65562    8.05259  -15.35493
       O    -6.72725    7.93375  -15.61883
      H1    -6.45936    7.01745  -15.43743
       H    -7.94954   11.17151  -15.35659
       O    -8.56929   11.03112  -16.12222
      H1    -9.11544   11.81559  -16.06873
       H   -11.72865    9.88121  -17.60682
       O   -12.30104   10.61902  -17.57549
      H1   -11.71404   11.28220  -18.00529
       H    -4.28945   12.95696  -18.42697
       O    -5.06992   13.45151  -18.81475
      H1    -5.63504   12.62175  -18.99193
       H   -15.06364   10.54661  -14.74854
       O   -15.67789    9.75760  -14.80513
      H1   -15.83044    9.55072  -13.87565
       H   -15.01254   14.10488  -16.85851
       O   -15.34524   13.33424  -17.45556
      H1   -14.47720   12.99325  -17.49240
       H    -8.48694    4.11507  -13.09904
       O    -7.94228    4.90327  -12.93859
      H1    -8.69619    5.58655  -13.05406
       H   -11.41200    8.04317  -19.18413
       O   -10.71366    8.48137  -18.62253
      H1    -9.96496    7.90400  -18.63966
       H   -11.78874   11.95929  -10.09794
       O   -11.40835   11.98723   -9.22857
      H1   -10.44987   12.05661   -9.40702
       H    -7.80154    7.82658  -18.94835
       O    -7.98191    7.24024  -18.21381
      H1    -7.51122    7.69792  -17.50741
       H    -9.23215   13.64146  -12.99103
       O    -8.95656   13.44801  -13.86292
      H1    -8.09370   13.84535  -13.97105
       H    -5.94037    8.10365  -13.64576
       O    -6.11546    8.24985  -12.72715
      H1    -5.31936    8.78569  -12.57747
       H   -12.93038    3.70660  -18.16517
       O   -13.03400    4.66125  -18.16315
      H1   -13.83600    4.71737  -17.68463
       H   -14.41413    3.19650  -15.77310
       O   -14.94491    3.95398  -16.07700
      H1   -15.74310    3.49857  -16.34422
       H   -14.85757    7.66008  -12.01152
       O   -13.97981    7.30338  -12.23597
      H1   -13.45935    7.86085  -11.63603
       H    -5.76787   14.55265  -15.49822
       O    -6.56134   14.02454  -15.60036
      H1    -6.87325   14.28877  -16.48356
       H   -11.59385   15.93666  -14.51937
       O   -12.28319   15.55864  -15.03079
      H1   -13.05652   15.67278  -14.45335
       H   -12.56423   13.05307  -16.24245
       O   -12.64206   13.77325  -16.91165
      H1   -12.58670   14.57250  -16.40847
       H   -17.16574    9.37263  -17.97133
       O   -16.99891    9.04006  -18.84529
      H1   -16.90585    8.10808  -18.61299
       H   -13.18743   10.89864  -14.37296
       O   -13.34533   11.51961  -15.04189
      H1   -12.95886   11.05242  -15.80338
       H    -8.28936    1.87515  -12.76753
       O    -8.62855    2.14278  -13.68704
      H1    -8.06215    1.68098  -14.33741
       H   -12.03954    0.70681  -16.89532
       O   -11.30565    1.24808  -17.16312
      H1   -10.53117    0.67468  -17.08033
       H    -7.53500    3.84374  -17.29691
       O    -6.54238    3.88207  -17.18024
      H1    -6.24855    4.60649  -17.70214
       H    -9.68955   14.92662  -18.19620
       O   -10.35623   15.27696  -18.80099
      H1    -9.63994   15.78228  -19.34509
       H   -10.05362    7.36452  -14.03530
       O    -9.97200    6.76026  -13.28336
      H1   -10.59779    6.02916  -13.53704
       H    -6.45647    5.34513  -11.93724
       O    -5.55885    5.61183  -11.64937
      H1    -5.60861    6.53841  -11.54321
       H   -10.30262    3.96425   -9.58026
       O   -11.12807    4.50997   -9.63693
      H1   -10.73767    5.34335   -9.98222
       H    -6.33505   12.39600  -14.88854
       O    -6.65232   11.66500  -14.36230
      H1    -5.89240   11.36292  -13.85496
       H    -2.46150   11.27539  -14.98146
       O    -3.33072   11.71952  -14.89024
      H1    -3.86119   11.27452  -15.54713
       H    -8.10741   11.57201  -17.67328
       O    -7.76102   11.67231  -18.53331
      H1    -8.49327   12.10364  -18.97515
       H   -10.40173    9.88884   -8.76331
       O    -9.96100    9.18504   -9.25274
      H1    -9.46079    9.75161   -9.86264
       H    -9.45703    2.32594  -17.18995
       O    -9.05315    3.20581  -17.35911
      H1    -9.71425    3.84965  -17.05895
       H   -13.02813   14.95975  -18.48981
       O   -12.84270   15.27874  -19.35509
      H1   -11.80941   15.30260  -19.35288
       H   -11.31038    5.48036  -17.62821
       O   -10.38116    5.58993  -17.29157
      H1    -9.85636    5.92586  -17.98353
       H   -17.41607   11.44261  -17.17030
       O   -17.62642   10.62847  -16.71794
      H1   -16.96760   10.45069  -15.99378
       H   -16.36147   11.34458  -12.43903
       O   -15.54959   10.82643  -12.21348
      H1   -15.29917   11.17816  -11.34850
       H    -5.47921    8.54005  -19.03487
       O    -4.94392    8.37129  -18.33053
      H1    -4.03641    8.49352  -18.72569
       H   -11.23573    3.80394  -14.19425
       O   -11.45553    4.59534  -13.66344
      H1   -11.90141    4.12410  -12.89722
       H    -7.00300   15.78376  -17.81997
       O    -7.53022   14.96113  -18.01336
      H1    -6.83948   14.41810  -18.46424
       H   -11.62147    1.77013  -20.07563
       O   -11.24399    2.54677  -19.54953
      H1   -11.19665    2.26173  -18.68156
       H   -13.72488    1.50945  -14.05724
       O   -13.14248    2.01470  -14.63999
      H1   -12.74840    1.29997  -15.12102
       H    -9.84971   12.85609  -18.24718
       O   -10.35898   12.24810  -18.87056
      H1   -11.03416   12.80626  -19.29177

