180
frame 8 | Written by MDAnalysis XYZWriter (release 2.4.3)
       H     6.42674   16.58147    1.27947
       O     6.89050   16.18200    2.01559
      H1     7.85011   16.29701    1.82172
       H    11.89762   12.92566   11.49947
       O    11.10718   13.36561   11.17438
      H1    10.65265   13.40517   12.02155
       H     9.63499   10.38313    9.88815
       O     9.55497    9.61700   10.47601
      H1     8.55772    9.55146   10.49443
       H     3.13653   17.78977   14.57481
       O     3.98363   17.76023   15.12120
      H1     4.44746   18.47366   14.66575
       H     9.01239   18.26755    0.86023
       O     9.04250   17.42510    0.45655
      H1     8.15500   17.28072    0.13214
       H     9.43371   11.75049    1.58076
       O     8.58319   11.61234    1.16083
      H1     8.23451   12.49343    1.04328
       H     3.12253   14.25152    1.17052
       O     2.60758   13.69202    1.74107
      H1     3.16327   13.26579    2.41296
       H     5.81009   19.16508    2.36808
       O     5.10602   19.04593    3.04054
      H1     4.43593   18.54427    2.55151
       H    10.64884   19.21568   14.08921
       O    11.20272   18.72981   13.44388
      H1    11.62586   18.22950   14.18550
       H    11.45021   18.19071    1.13359
       O    12.08735   18.56475    0.52824
      H1    12.22160   19.47158    0.83183
       H     3.06748   17.43121   10.29384
       O     3.88288   17.45219   10.77547
      H1     4.54246   16.99003   10.24359
       H    12.66719   17.75105    5.00924
       O    13.28333   18.32478    5.46342
      H1    12.79205   19.15918    5.67191
       H     1.08831   16.57624   14.39939
       O     1.89337   16.73330   13.88442
      H1     1.56336   16.76868   12.96734
       H    12.46926   16.16411   10.74014
       O    11.64108   15.95920   10.33230
      H1    11.41435   15.08791   10.72480
       H    10.54944   16.48742   11.49956
       O     9.85719   16.50662   12.14456
      H1    10.06760   17.25863   12.68288
       H    -0.61344   15.55341    4.31828
       O    -0.81442   15.19055    5.22159
      H1    -0.27115   14.40359    5.15277
       H     8.70464   14.91182    3.23998
       O     9.38975   15.54162    2.98321
      H1     9.67715   15.92379    3.79870
       H     8.19584   13.62667   12.28372
       O     8.62466   14.29200   12.89303
      H1     8.82307   15.01775   12.26723
       H     6.48736    9.65808    7.30889
       O     5.54972   10.01393    7.47774
      H1     5.34168   10.23740    6.50842
       H     0.69918   19.64641    1.67687
       O     1.57203   19.78061    2.20300
      H1     2.02755   18.87242    1.99423
       H     3.18646   17.08783    1.09302
       O     3.38071   18.01037    1.19662
      H1     4.12206   18.15817    0.57938
       H    11.50306   12.88441    2.51813
       O    11.25666   11.97247    2.35260
      H1    11.95266   11.34277    2.64830
       H     2.26984   10.39144    7.05822
       O     2.98300   11.07240    7.29951
      H1     3.66542   10.59377    7.77028
       H     1.76725   15.27298   11.54610
       O     1.00599   15.64400   11.09705
      H1     0.92518   15.12188   10.31613
       H     8.65137   14.43170    6.56927
       O     8.95878   15.38810    6.57285
      H1     8.19408   15.82399    6.12381
       H     6.73387   17.30156    7.08513
       O     6.69221   16.97847    6.18196
      H1     5.86385   16.52048    6.13178
       H     3.77602   15.96433    5.35178
       O     4.23352   16.00059    6.22518
      H1     3.95183   16.77723    6.69006
       H     3.33550   15.40174   13.02340
       O     3.48967   15.13749   12.13822
      H1     3.48584   16.05170   11.67237
       H    13.63938   18.52795    8.63289
       O    14.56174   18.71636    8.75508
      H1    14.95559   17.91085    8.38964
       H     9.35547   12.04258    7.72638
       O     8.82378   12.52409    7.04141
      H1     7.99150   12.46707    7.53613
       H     9.87817   18.86593   10.39393
       O     8.99358   18.41908   10.37572
      H1     9.19523   17.65527   10.90177
       H     6.47857   19.10505    8.63891
       O     7.31805   18.84375    8.19385
      H1     7.95660   18.92645    8.87697
       H    10.22165   17.44881    5.59311
       O    10.82578   16.92237    4.99103
      H1    10.93861   16.15155    5.56262
       H     2.44149   11.96714   10.62918
       O     1.58176   12.34270   10.71017
      H1     1.13356   11.47561   10.82195
       H     7.74618   12.43662    4.34586
       O     7.44874   13.37155    4.35559
      H1     6.48559   13.38034    4.24019
       H     4.00007   10.93638    5.62039
       O     4.70024   10.89064    4.93610
      H1     4.35300   10.11125    4.46422
       H     0.54363   18.24904    9.90022
       O     0.80840   18.42418   10.80939
      H1     0.61644   17.54609   11.16490
       H    10.87801   15.11629    2.67463
       O    11.80644   14.72537    2.41817
      H1    11.93668   15.02866    1.47465
       H    -0.63540   17.46783    7.99956
       O    -0.74890   16.45999    8.22840
      H1    -1.36967   16.13202    7.52448
       H     6.47778   11.81685    9.23735
       O     6.81535   12.61130    8.83004
      H1     6.06827   13.18824    8.73459
       H     1.61205   16.78002    6.69882
       O     1.96398   17.57205    6.32048
      H1     1.19212   17.95205    5.91772
       H     1.02070   18.84647    7.87410
       O     0.08839   18.90774    8.19907
      H1    -0.12838   19.69660    7.66488
       H     4.30936   14.50157    7.35207
       O     4.51538   13.89201    8.07146
      H1     3.74121   13.32241    7.94291
       H    11.37929   17.05853    8.64393
       O    11.46240   17.83117    8.04447
      H1    10.55810   17.95844    7.71358
       H     6.69532   14.58219    1.40854
       O     6.79480   13.70499    1.01280
      H1     6.43632   13.66966    0.14617
       H     4.71986   16.86804    3.20776
       O     4.15820   16.10575    3.27093
      H1     4.74303   15.33608    3.20927
       H     8.30227   18.45016    6.27583
       O     9.27993   18.68472    6.21550
      H1     9.14575   19.61246    6.18938
       H    14.18132   15.83064    6.53199
       O    13.29992   15.72310    7.00407
      H1    12.95831   16.66836    6.96445
       H     1.02718   19.45093    3.67813
       O     0.59583   19.53890    4.57086
      H1    -0.31546   19.15014    4.53296
       H    10.76708   13.77208    6.27157
       O    11.63341   13.97289    5.88408
      H1    12.13160   14.58950    6.45290
       H     7.89719   14.08652    9.43464
       O     8.26481   14.98194    9.47016
      H1     8.65093   15.07661    8.61378
       H     5.24268   15.11339    9.02907
       O     5.77896   15.81773    9.42409
      H1     6.66963   15.43789    9.55311
       H    14.71072   12.86218    6.98534
       O    14.36378   13.04077    7.89065
      H1    13.74155   13.77301    7.73065
       H     4.87748   11.81494   11.54169
       O     5.32266   12.40289   12.11959
      H1     4.62670   13.11750   12.24564
       H    -0.23863   15.15297    2.52965
       O     0.05717   14.24703    2.40260
      H1     1.03757   14.43649    2.24244
       H    10.11625   11.51284    4.06966
       O     9.32633   11.12232    4.53829
      H1     9.28755   11.84864    5.25186
       H    10.72253   12.25858    9.66236
       O    10.42573   11.61915    9.00360
      H1    11.19451   11.04334    8.77309
       H     5.23975   13.00049    2.58250
       O     4.83779   13.26952    3.41710
      H1     4.61784   12.45097    3.88786
       H     6.83435   18.16821   -0.67566
       O     6.34268   17.39221   -0.32338
      H1     6.24936   16.77118   -1.05206
       H    10.07460   17.83483    3.13672
       O     9.87897   18.71514    2.77039
      H1    10.41625   19.36794    3.38543

