180
frame 4 | Written by MDAnalysis XYZWriter (release 2.4.3)
       H    10.98890    4.50944    9.63292
       O    11.49237    4.11526    8.85467
      H1    11.74870    4.97916    8.56732
       H    15.07106    9.46956   17.04366
       O    15.23631    9.83166   17.91676
      H1    16.13243   10.15805   17.83113
       H    15.35253    4.94131   18.81414
       O    15.03448    5.32940   19.63844
      H1    15.82684    5.52842   20.13206
       H    15.88977    2.85713   11.49534
       O    16.20971    2.39436   12.33423
      H1    16.67794    1.68678   11.86132
       H    11.40608   13.46661   11.99436
       O    10.74357   13.56842   11.29146
      H1     9.93145   13.61713   11.79975
       H    10.01362   10.05706   10.77252
       O     9.48964    9.59007   11.46302
      H1     8.65595    9.50232   10.99588
       H    12.26588   14.59429   18.00645
       O    13.25063   14.47505   18.10669
      H1    13.63594   15.37248   18.37393
       H    12.86726    5.21346   12.57401
       O    13.72047    4.82318   12.43088
      H1    13.52145    3.87394   12.49455
       H     9.08396   10.56989   17.51874
       O     8.27281   11.03501   17.90876
      H1     7.94258   10.22778   18.25008
       H    10.55539    7.33366   13.40529
       O     9.70110    7.75093   13.69998
      H1     9.62092    8.31943   12.96624
       H    13.70400    2.72318   10.02735
       O    14.69134    2.75157    9.87493
      H1    14.67091    3.42329    9.20439
       H    15.08100    5.87078   12.94390
       O    15.67828    6.33629   13.55700
      H1    16.03455    5.53776   14.01960
       H    13.27190    7.37136   18.59222
       O    13.80607    7.07408   17.80675
      H1    14.53309    6.51045   18.16718
       H    17.32766   12.75885   12.95899
       O    17.61928   12.10658   13.61541
      H1    18.25386   11.57040   13.11012
       H    14.98302    3.53474   17.06931
       O    15.32666    4.41349   16.95473
      H1    14.63734    4.80228   16.41360
       H    13.86623    8.33101   16.12376
       O    14.29904    8.80898   15.42155
      H1    13.81169    9.67318   15.54953
       H    14.92790    9.35123   13.67526
       O    14.80391   10.05201   13.04063
      H1    15.47505    9.86326   12.35338
       H    14.65564   13.53133   11.92996
       O    14.20593   13.59948   11.06543
      H1    14.96231   13.46492   10.50049
       H     9.47378   10.48456   12.99678
       O     9.00820   10.90816   13.75437
      H1     8.90496   11.83436   13.46816
       H    13.98591    6.19212   14.74038
       O    13.41775    5.81589   15.40863
      H1    13.78962    6.22268   16.19927
       H    13.36620   10.05310   11.99809
       O    12.52402    9.65241   11.66129
      H1    12.28500   10.31869   11.01293
       H    12.41911   15.98012   15.70057
       O    12.30414   15.58550   14.85957
      H1    11.34991   15.80302   14.61878
       H    17.93368   13.90224   18.57461
       O    17.87530   13.66930   19.51282
      H1    17.72470   12.76490   19.37171
       H    19.14874    5.94382   15.32919
       O    18.60057    6.75223   15.29012
      H1    17.75109    6.37094   14.98021
       H     7.18716    7.90144   12.55500
       O     7.53085    7.00075   12.45351
      H1     8.30172    7.13887   12.99989
       H    10.66552    4.80261   13.22594
       O    10.59137    4.51134   12.28879
      H1    10.17173    3.63312   12.36623
       H    13.05537    6.46363    6.40453
       O    12.55505    6.26313    7.22951
      H1    12.22568    7.13514    7.33025
       H    13.13108    7.36862   13.46094
       O    12.42911    7.20201   12.82934
      H1    12.43201    7.98534   12.25976
       H    13.57564    2.23883   13.45497
       O    13.46561    2.16678   12.50612
      H1    14.37310    2.09530   12.27512
       H    10.18646    9.76363   15.32504
       O    10.34424   10.13305   16.23420
      H1    10.44534    9.30521   16.68966
       H    17.56947   13.71990   16.62076
       O    18.22789   14.30403   16.95660
      H1    19.04083   13.89037   16.57571
       H    18.32668    9.80529   17.54040
       O    18.01099   10.65186   17.85933
      H1    17.63840   11.02923   17.08919
       H    13.32235   15.28921   11.22388
       O    13.38373   16.25284   11.22766
      H1    14.31446   16.33801   10.94507
       H    12.54031   11.89000   15.21594
       O    12.84851   11.05823   15.53534
      H1    11.96206   10.73090   15.66303
       H    18.34962    7.28218   17.26603
       O    18.89961    7.86778   17.87734
      H1    19.56342    8.01563   17.19569
       H    13.84659   12.48014   18.71905
       O    13.62148   11.66111   19.16383
      H1    14.14802   11.02600   18.60071
       H    16.89908   14.99344   10.73106
       O    17.16028   14.16189   11.14044
      H1    17.79341   13.79599   10.51924
       H     8.53058    8.61068   15.21341
       O     7.57907    8.64719   15.51004
      H1     7.47057    9.51044   15.04140
       H    15.75799   12.51834   15.93591
       O    16.67613   12.32488   15.96121
      H1    16.90749   12.31423   14.98373
       H    11.49357    5.78369   15.12321
       O    10.95565    5.02522   14.72819
      H1    10.10881    5.17409   15.06195
       H    15.11635    4.62237    6.92043
       O    14.73621    4.76285    7.81423
      H1    13.85603    5.28320    7.74458
       H    11.62396    4.30144   17.75918
       O    12.21012    3.83540   17.16643
      H1    12.01944    4.25820   16.28440
       H    13.05605    2.85988   15.46878
       O    13.82782    2.53650   15.11356
      H1    14.09855    2.03121   15.89665
       H    10.77124    6.85318   10.36764
       O    10.29017    6.57365    9.59953
      H1     9.37417    6.52350    9.95514
       H    12.82286   13.86749   13.92024
       O    12.38911   13.22787   13.30160
      H1    12.92145   12.47441   13.45202
       H    13.86273   11.54316    8.28515
       O    12.93428   11.66825    7.95611
      H1    12.88386   10.90090    7.41636
       H    19.80276    6.07871   11.68537
       O    19.04558    5.71013   12.22761
      H1    19.40705    4.96158   12.69649
       H    15.59217   12.48836    7.09380
       O    15.59733   12.51067    8.09047
      H1    15.32224   13.45480    8.23603
       H    13.77694   13.88428   16.08498
       O    14.38055   13.83917   15.35046
      H1    14.70978   14.79155   15.19193
       H    15.44074   16.13142   12.81036
       O    15.16206   16.32245   13.72844
      H1    14.24474   16.64233   13.59992
       H    18.69118    6.76596    8.41267
       O    19.15904    7.39211    7.81869
      H1    19.64886    6.89214    7.12708
       H    17.59589   12.41360    9.10601
       O    18.50698   12.64510    9.33891
      H1    19.02155   11.97378    8.90515
       H    18.51739    3.60502   13.91039
       O    19.29987    3.33605   13.47462
      H1    18.97497    2.68488   12.85066
       H    18.54216    4.19222    9.53089
       O    18.80459    3.38620    8.98382
      H1    19.10154    2.74822    9.64462
       H    17.93374    5.97251   10.54217
       O    17.68839    5.88413    9.59618
      H1    16.77262    6.01510    9.44447
       H    10.79821   12.15397   10.36427
       O    10.87187   11.35260    9.86559
      H1    11.40573   11.63637    9.06483
       H    10.43546    8.36171   19.26968
       O    10.05916    8.09601   18.42066
      H1    10.45450    7.19200   18.28810
       H    16.34921    3.37434   14.05366
       O    16.75591    4.12830   14.58028
      H1    16.36301    4.03438   15.46772
       H    11.54102    5.99416   19.79246
       O    11.29943    5.75582   18.90383
      H1    12.22310    5.67081   18.51990
       H    16.38201    8.01691   11.64431
       O    16.92879    8.80758   11.95592
      H1    17.17362    8.59939   12.84709

