180
frame 5 | Written by MDAnalysis XYZWriter (release 2.4.3)
       H    14.60141  -13.23590    3.92303
       O    14.00378  -13.00745    3.17383
      H1    13.43697  -13.81451    3.10088
       H    16.42583  -15.11995    0.50533
       O    16.40434  -14.18131    0.20874
      H1    16.66393  -14.15928   -0.76064
       H    11.52101  -14.36134    2.26961
       O    12.02668  -14.83910    2.93773
      H1    12.18883  -15.72024    2.50089
       H     9.45920   -8.85043    7.07079
       O     8.88076   -8.37658    6.51712
      H1     9.23702   -8.12737    5.63797
       H    17.57210  -12.99260    0.32860
       O    18.04903  -12.11043    0.26184
      H1    18.85512  -12.27098    0.76141
       H    12.30610   -5.71115    3.30452
       O    13.04621   -5.66613    3.94789
      H1    13.78327   -6.10821    3.59959
       H    13.36125  -10.80481   -0.40909
       O    12.71712  -10.14185   -0.78170
      H1    11.98807  -10.63414   -1.13384
       H    17.31069  -10.99412    1.41408
       O    17.28999  -10.32672    2.14889
      H1    16.35217  -10.11658    2.12155
       H    16.30055   -4.96900   -3.77055
       O    17.21103   -5.03038   -3.35580
      H1    16.93881   -5.11243   -2.44435
       H    14.07154  -12.52832    1.24148
       O    14.14853  -12.32104    0.28379
      H1    14.97939  -12.74995    0.04030
       H    14.05666   -2.70505   -2.76987
       O    14.15849   -3.36814   -2.06407
      H1    13.67204   -4.13556   -2.44462
       H    18.55567  -12.27363    4.26512
       O    17.78728  -11.67963    4.48276
      H1    17.59810  -11.35044    3.60239
       H    18.67485  -10.75465    7.26420
       O    18.49162  -11.60375    7.63231
      H1    18.96820  -12.25025    7.02522
       H     9.92310   -3.77453    5.67129
       O    10.61083   -3.32101    5.14495
      H1    10.80410   -3.87712    4.35724
       H    16.26841  -13.58959    5.90275
       O    16.04250  -13.71926    4.95411
      H1    16.69313  -13.06686    4.57057
       H    13.35434   -8.73054    6.57188
       O    13.65947   -9.64128    6.57824
      H1    14.62120   -9.58974    6.61125
       H    11.71365   -3.58528    6.61820
       O    12.37866   -3.73765    7.29734
      H1    13.11917   -3.73596    6.75634
       H    15.80105  -11.93738   -3.91202
       O    15.46767  -11.96660   -3.01080
      H1    15.41104  -10.98560   -2.78532
       H    14.11376   -9.37395    2.67915
       O    14.96678   -9.07964    2.33210
      H1    15.25395   -8.48956    3.09415
       H     8.63479  -12.29779    3.85865
       O     8.02995  -13.04789    4.00822
      H1     7.88120  -13.35733    3.11552
       H    12.93818  -11.56619    3.79337
       O    12.51486  -10.82742    4.30890
      H1    13.11178  -10.40648    4.91287
       H    19.42368   -5.83411   -0.60846
       O    18.45779   -5.74411   -0.83564
      H1    18.30681   -4.91676   -0.40907
       H     8.70939   -8.34051    1.28949
       O     8.52920   -9.26071    1.44504
      H1     8.28377   -9.59052    0.57912
       H    16.24817   -6.45234    3.82878
       O    15.43817   -6.89085    4.09863
      H1    15.64438   -7.43753    4.93365
       H    12.20059   -4.26836   -0.31506
       O    12.14527   -4.97740    0.36318
      H1    12.85087   -5.57079    0.19915
       H    12.72595  -13.24029   -0.35300
       O    11.87425  -13.65384   -0.58810
      H1    11.97609  -14.55283   -0.20716
       H    13.75092   -3.81788    4.34280
       O    13.92686   -3.06401    4.90102
      H1    14.92547   -3.04339    4.94196
       H    14.52862   -8.50536    9.69801
       O    14.94543   -9.27836    9.29604
      H1    14.22083   -9.73673    8.85728
       H    11.01892   -7.33300    4.28330
       O    10.03406   -7.40824    4.21885
      H1     9.94301   -7.09911    3.30947
       H    14.19518   -9.40588   -1.52178
       O    14.88089   -9.26580   -2.19827
      H1    15.46220   -8.56745   -1.93783
       H     9.63452  -10.17629    2.65412
       O     9.95463  -10.93125    3.09971
      H1    10.81160  -10.71923    3.47593
       H    11.06022   -7.25673   -0.30317
       O    10.16562   -7.17006   -0.60620
      H1     9.92764   -7.75029   -1.35559
       H    17.10011  -14.73272   -2.65255
       O    17.44644  -13.83446   -2.33485
      H1    16.79143  -13.15994   -2.59740
       H    16.90132   -3.08221    0.01048
       O    16.23623   -3.74133   -0.09359
      H1    15.55809   -3.39726   -0.69220
       H    12.36094   -8.72243   -4.12781
       O    13.03179   -8.10344   -3.87651
      H1    13.60971   -8.64316   -3.31452
       H    19.75745   -3.45381    3.85414
       O    18.83902   -3.53209    3.46358
      H1    18.18121   -3.03026    3.97657
       H    13.60809   -5.40507    7.81064
       O    14.46367   -5.73736    8.05391
      H1    14.67059   -6.34283    7.33627
       H    11.29453   -4.69390    1.81793
       O    10.75345   -4.50916    2.64074
      H1    10.03054   -5.05503    2.41508
       H    15.54914  -13.19683    8.26090
       O    16.29609  -13.35098    7.61324
      H1    16.84922  -12.56846    7.70392
       H     7.77844   -5.14732    4.04197
       O     8.26106   -5.15065    4.81260
      H1     8.97651   -5.83281    4.81306
       H    11.83224   -6.88117    6.71081
       O    12.61509   -7.10967    6.14414
      H1    12.60819   -6.54189    5.39533
       H    19.89578   -8.63405    1.59130
       O    19.32153   -7.88069    1.36001
      H1    19.62706   -7.61442    0.45395
       H    17.33415  -16.62958    4.95150
       O    16.73600  -16.29523    4.31152
      H1    16.51953  -15.42080    4.60559
       H    15.39118   -6.94365    0.51869
       O    14.71879   -6.27444    0.64636
      H1    15.21998   -5.49344    0.56253
       H    12.67597  -13.53090   -3.77457
       O    13.18439  -12.80936   -4.12392
      H1    13.95071  -12.53960   -3.55503
       H    15.04091   -2.68713    0.86615
       O    14.81054   -1.73403    1.04275
      H1    14.06372   -1.73339    1.64926
       H    18.96903   -6.84454    2.74638
       O    18.46917   -6.30509    3.41723
      H1    18.47064   -5.44422    2.94906
       H    19.34685   -2.73400    0.23795
       O    19.03757   -3.52968    0.74272
      H1    18.90388   -3.11041    1.62605
       H    19.41646   -8.43328    6.23753
       O    18.90962   -8.00991    6.90751
      H1    19.24415   -7.12001    6.86936
       H    19.11698   -7.59437   -2.65775
       O    18.51164   -7.42834   -3.32893
      H1    18.06668   -6.56432   -3.14200
       H    13.04978   -7.38637    1.07651
       O    12.25503   -7.90773    1.13178
      H1    12.42979   -8.77852    0.88244
       H    15.83756   -8.82168    7.89526
       O    16.14209   -8.43225    7.02551
      H1    17.13016   -8.18743    7.04584
       H    16.25943   -8.91245   -4.93702
       O    16.92833   -9.42588   -4.53513
      H1    17.39163   -8.76677   -3.97590
       H     9.09665   -6.60712    0.81320
       O     8.98161   -6.58818    1.75706
      H1     8.07995   -6.32950    2.00894
       H    17.43610   -7.36965   -0.58923
       O    16.69987   -7.97698   -0.25220
      H1    17.04296   -8.26863    0.61747
       H    10.19748  -12.14026    1.86648
       O    10.15236  -12.95479    1.31518
      H1    10.89565  -12.94955    0.64450
       H     9.69280  -11.72778   -2.00912
       O    10.04594  -10.82221   -1.89225
      H1    10.52404  -10.72176   -2.73503
       H    18.74367  -11.41524   -2.81308
       O    18.72749  -10.71233   -2.19142
      H1    18.34580  -11.10287   -1.41096
       H    11.27392  -12.58761    7.93759
       O    12.15929  -12.21547    7.97722
      H1    12.54671  -12.28458    7.06067
       H    10.56395   -9.51857    9.13552
       O    10.64186   -9.78106    8.21207
      H1    11.47579  -10.28326    8.19973

