180
frame 7 | Written by MDAnalysis XYZWriter (release 2.4.3)
       H     5.82471    0.42328    5.41484
       O     6.26612   -0.16794    6.05563
      H1     5.58073   -0.75900    6.44724
       H    -3.64403    4.50697    5.87752
       O    -3.60986    4.50768    4.89381
      H1    -4.51259    4.79290    4.64487
       H    -0.24946    0.35215    6.28193
       O     0.00597    0.27475    5.32188
      H1    -0.63816   -0.32700    4.95529
       H    -0.78008    3.12840   14.43846
       O    -1.38698    3.71482   14.94687
      H1    -1.48596    4.46027   14.32852
       H     0.17185    3.36161    5.17755
       O    -0.69892    3.10733    5.55785
      H1    -0.69850    2.22496    5.18320
       H     0.56170   -2.94143    7.15975
       O     0.48363   -3.83403    6.80693
      H1     1.16951   -4.30371    7.37883
       H     3.78872    1.79443    9.72972
       O     4.22149    1.47170   10.52084
      H1     3.86584    2.12316   11.12329
       H    -3.70692   -1.16487    9.47943
       O    -3.16481   -1.92300    9.21898
      H1    -3.49323   -2.03252    8.32015
       H     1.96404    1.70531    7.81334
       O     1.80471    1.12989    8.55964
      H1     1.61351    1.72114    9.30259
       H     3.16895   -1.61186   13.68277
       O     3.75862   -1.21305   14.36580
      H1     3.16171   -1.24894   15.11136
       H     4.94125    5.03812   10.51020
       O     5.38407    5.49445    9.73251
      H1     4.59858    5.41922    9.14473
       H     3.93597    7.64405    9.28156
       O     3.47673    7.82329   10.12994
      H1     4.17869    7.70741   10.85228
       H    -1.51677    2.83320   10.12574
       O    -1.15085    3.07839   10.98053
      H1    -1.38322    3.98971   10.87898
       H     0.49880    4.01230    9.48104
       O     1.41709    3.71526    9.56335
      H1     1.85735    4.53511    9.91185
       H    -4.25144    5.19143    9.16324
       O    -4.10522    4.71366    8.34452
      H1    -3.55089    3.95491    8.59965
       H     5.75605    0.53420   10.56089
       O     6.41117   -0.20368   10.61034
      H1     6.08216   -0.77490   11.31657
       H     4.04998    4.29078    7.61589
       O     3.36482    4.91591    7.66367
      H1     2.59523    4.40040    7.93258
       H    -1.07091   -1.94060   10.40505
       O    -0.77799   -2.88121   10.31612
      H1    -1.54474   -3.34535    9.97806
       H     0.09045    0.60469    8.19734
       O    -0.78443    0.40241    7.82621
      H1    -1.12332    0.13364    8.68923
       H     6.53877    7.51298   12.08497
       O     5.61481    7.36187   12.34757
      H1     5.72111    6.38988   12.48930
       H     1.12985    0.91012   12.06498
       O     1.49258    0.28328   11.36002
      H1     2.27492    0.75812   11.04506
       H     1.74417    0.98045    5.67538
       O     2.15377    1.88280    5.73772
      H1     3.04538    1.68989    5.37303
       H    -3.05057    0.08987   12.70579
       O    -3.27959    0.72515   12.06453
      H1    -4.22221    0.41901   11.94954
       H    -3.83423    2.57344   11.29530
       O    -4.09990    2.81561   10.42099
      H1    -5.02789    3.05648   10.49079
       H     2.97328    6.15481   11.24227
       O     3.10680    5.15841   11.27102
      H1     2.57257    4.84963   12.01665
       H     2.96659   -3.15368    3.72214
       O     2.27208   -2.73459    4.22845
      H1     2.24633   -3.13207    5.10314
       H     6.75607    2.24265   13.81221
       O     6.07482    2.18795   14.49522
      H1     6.11084    2.98149   15.02373
       H    -2.98492    6.12804   10.40315
       O    -2.23754    5.88685   10.95336
      H1    -1.61009    6.54849   10.63436
       H     0.19221   -3.01087   13.28356
       O    -0.67161   -3.39486   13.11095
      H1    -0.62129   -3.22184   12.08308
       H    -2.69554   -0.58425    3.91939
       O    -2.02134   -1.18275    4.21957
      H1    -2.16380   -1.96591    3.66606
       H    -1.76428    1.99912    7.86391
       O    -1.98938    2.92922    8.12113
      H1    -1.42927    3.47457    7.52531
       H     5.30730    2.53350    6.14550
       O     5.29406    2.92930    7.05201
      H1     5.99286    2.32866    7.41217
       H     1.71718    2.23058    4.10573
       O     1.45178    2.57970    3.25228
      H1     1.18764    1.75933    2.76341
       H    -0.85319    5.60677    4.35280
       O    -1.57722    6.19036    4.00848
      H1    -2.29031    5.77153    4.45736
       H     2.68842   -4.29453    8.44530
       O     2.49473   -5.11164    7.94359
      H1     3.23213   -5.31369    7.32907
       H     2.39930   -2.19460   11.65603
       O     1.95965   -2.16044   12.53217
      H1     1.56427   -1.25856   12.48911
       H    -1.78614   -2.05706   13.75839
       O    -2.41509   -1.33596   13.81387
      H1    -2.27407   -1.17600   14.73853
       H     0.20258   -0.71683    2.10648
       O     0.91052   -0.23823    2.58605
      H1     0.78446   -0.50394    3.50053
       H     1.49627    4.95061    3.99065
       O     0.80501    5.28621    4.57164
      H1     1.22228    6.04618    4.97693
       H     1.85549   -2.15908    9.67621
       O     2.41702   -2.83576   10.08822
      H1     1.73359   -3.48677   10.38758
       H     4.60027    2.07569   13.66126
       O     3.91122    1.56669   13.17694
      H1     3.96859    0.73287   13.65223
       H     0.72043    2.51510   13.21450
       O     0.05393    1.85126   13.03390
      H1    -0.54898    2.34118   12.46480
       H     1.04743    7.02145    7.38641
       O     0.58514    7.55111    8.06319
      H1    -0.29114    7.14879    7.94167
       H     2.39527   -0.35551    7.85870
       O     2.75271   -1.17222    7.47906
      H1     3.54520   -1.20079    7.92907
       H     5.22364    8.78124    7.66451
       O     4.61935    8.04350    7.62940
      H1     5.21703    7.34045    7.53345
       H     6.40289   -3.06700    8.94474
       O     7.12001   -3.65036    8.92083
      H1     7.61642   -3.32493    8.17132
       H    -1.74630    6.48865   14.44960
       O    -1.10272    6.37035   13.77860
      H1    -1.60801    6.27314   12.96128
       H    -2.09817    0.10128   11.00718
       O    -1.26116   -0.13344   10.55029
      H1    -0.62308    0.43620   11.00948
       H    -2.74158    5.51121    7.90719
       O    -2.04443    6.16599    7.87573
      H1    -2.60428    6.85746    7.51060
       H    -3.40992   -3.41315    5.91801
       O    -3.24026   -2.55357    6.36386
      H1    -2.72536   -2.14798    5.59689
       H     0.53938    6.71924   13.50994
       O     1.37199    7.06756   13.20448
      H1     1.92660    6.39473   13.71190
       H     6.50806    5.18233   13.96472
       O     6.43611    4.89908   13.03912
      H1     7.36781    5.08680   12.74376
       H     3.23087    4.66237    4.96686
       O     3.64643    5.33446    4.39780
      H1     4.60322    5.16904    4.60497
       H     7.95062    3.11995   10.19657
       O     7.54758    3.75251   10.79321
      H1     6.92896    4.17613   10.18124
       H     2.68035    2.93939   13.55861
       O     2.01945    3.60100   13.58605
      H1     2.05910    3.82225   14.55737
       H    -4.59051    1.25882    9.41228
       O    -4.89897    0.34107    9.24449
      H1    -5.14195    0.43514    8.31164
       H     0.59649    7.85725   11.60113
       O    -0.03064    7.73390   10.80467
      H1     0.51751    7.72629   10.02187
       H     4.42013   -1.81753    9.54025
       O     5.27794   -1.83893    8.99363
      H1     5.71758   -1.19658    9.56548
       H     5.87976    2.04608    4.35963
       O     4.91054    1.81425    4.23786
      H1     4.90678    1.49252    3.33819
       H     8.91183    1.68763    8.99882
       O     8.11107    2.04405    8.59743
      H1     8.48744    2.72011    8.03462

