180
frame 6 | Written by MDAnalysis XYZWriter (release 2.4.3)
       H   -14.62846   14.06777    5.72119
       O   -13.84994   14.59361    5.98390
      H1   -13.46072   14.95780    5.17320
       H   -18.85733   13.24916    2.49237
       O   -18.79452   12.30554    2.76154
      H1   -17.93296   12.05130    2.51513
       H   -19.24820   15.22068    2.12642
       O   -18.63131   15.25225    2.83069
      H1   -19.25949   15.34491    3.53754
       H   -16.07301   16.59264   -3.02433
       O   -15.60982   15.74318   -2.91451
      H1   -16.12087   15.08669   -3.43098
       H   -11.97631    8.11221   -2.44193
       O   -12.83773    7.65503   -2.41579
      H1   -13.10034    7.87983   -3.34160
       H    -6.97609   15.09601    3.53427
       O    -6.27524   15.35621    4.18026
      H1    -6.33859   16.28024    4.07402
       H   -13.47948   19.02817   -2.92412
       O   -13.00414   18.23226   -3.30955
      H1   -12.50129   18.04414   -2.50877
       H    -9.92610   11.65296    2.44505
       O    -9.56564   12.40608    2.93467
      H1    -9.31576   13.03535    2.24747
       H    -9.60087   15.65691    0.31888
       O    -8.95002   16.36531    0.31720
      H1    -8.54998   16.21244   -0.59564
       H   -16.68885   14.15886    4.27237
       O   -16.27814   13.59805    4.87790
      H1   -16.95460   13.73080    5.54558
       H   -10.37723   12.83501    9.38187
       O   -10.25314   12.84096    8.39856
      H1   -11.14830   12.69911    8.07606
       H   -12.77005   18.81539    3.26390
       O   -12.16878   18.12207    2.88601
      H1   -11.57217   18.77919    2.58195
       H   -12.09104   13.06260   -2.84980
       O   -11.19619   12.92148   -2.58950
      H1   -11.05775   11.94508   -2.49001
       H    -7.65192   13.14822    1.35508
       O    -7.11803   12.39168    1.45553
      H1    -6.69917   12.50629    2.34353
       H    -9.64006    9.35147    2.65056
       O   -10.12163    9.81222    1.95067
      H1   -10.92988    9.28943    1.97484
       H   -18.29549   18.28366   -2.71090
       O   -17.37689   18.40155   -2.50624
      H1   -17.38751   18.21299   -1.58096
       H    -8.06289   10.09525   -0.89502
       O    -8.72750    9.44620   -0.70813
      H1    -9.13486    9.83413    0.08701
       H   -14.67701   11.02018   -3.05738
       O   -14.77085   10.45472   -2.22971
      H1   -14.27210    9.71569   -2.58100
       H   -10.70250   15.79614    8.53611
       O    -9.99942   15.54394    7.94182
      H1   -10.05324   14.59357    8.06692
       H    -8.51196    8.62831    4.73985
       O    -9.45204    8.90724    4.75988
      H1    -9.37994    9.79599    5.17286
       H   -13.79130   18.37995    1.29503
       O   -14.30608   18.05338    0.55788
      H1   -14.67756   18.93335    0.27554
       H   -16.78131   10.59364   -2.55484
       O   -17.65640   10.80286   -2.88374
      H1   -18.22650   10.45748   -2.15297
       H   -15.81456   18.14785    5.87964
       O   -15.18433   18.57087    6.42554
      H1   -15.78156   19.00661    7.07009
       H   -20.23577   13.39935   -0.25628
       O   -19.62138   13.95526    0.25135
      H1   -18.81859   13.70229   -0.10772
       H    -9.17684   12.02211    6.19753
       O    -9.84699   11.71989    5.55131
      H1    -9.59960   12.19850    4.74654
       H   -14.02199   15.26658   -2.82091
       O   -13.05546   15.08695   -2.87821
      H1   -12.73224   15.97882   -2.81398
       H    -9.41798   19.39615   -1.35003
       O    -9.93769   18.96637   -0.58285
      H1    -9.31929   18.14155   -0.57666
       H   -13.30920   10.47222   -1.24438
       O   -12.46834   10.71311   -0.76021
      H1   -12.59844   10.25741    0.05874
       H   -17.41711   14.26154   -1.85025
       O   -17.12487   14.42651   -0.92585
      H1   -16.26326   14.81886   -1.01088
       H   -12.75403   15.28273    2.89220
       O   -12.24853   15.55686    3.68386
      H1   -12.32638   16.52250    3.66314
       H    -5.29342   12.50215    4.68670
       O    -6.11590   12.22550    4.05448
      H1    -6.83093   12.82170    4.37290
       H    -8.98239   14.72027   -3.23143
       O    -9.53176   14.81086   -4.03003
      H1   -10.31255   14.36464   -3.69737
       H   -13.39345   10.57673    7.50122
       O   -13.47919    9.70985    7.12522
      H1   -13.26547    9.78358    6.19395
       H    -8.97918   14.89334    2.92173
       O    -8.26828   14.66808    2.31170
      H1    -8.31763   15.41696    1.62039
       H   -13.52147    5.34429    1.10454
       O   -13.82140    6.02833    1.77190
      H1   -13.31106    6.75627    1.44221
       H   -13.64066   17.49033    6.68008
       O   -13.10682   16.91454    7.26733
      H1   -13.35477   16.10851    6.85754
       H   -14.93499    9.93721    4.11249
       O   -14.05343    9.56909    4.26303
      H1   -14.15103    8.77738    3.71972
       H   -16.14414   12.11720    0.50216
       O   -16.15822   11.80073    1.43952
      H1   -15.20719   11.63154    1.64914
       H   -16.82912   17.91075    2.97827
       O   -16.98926   18.51370    2.26555
      H1   -17.26875   17.96177    1.48998
       H   -14.65932   16.19918    0.14481
       O   -14.46385   15.33445   -0.25973
      H1   -14.13203   15.58423   -1.14356
       H   -17.01105    9.04215    0.53019
       O   -17.17521    9.22507    1.48171
      H1   -16.66668   10.09105    1.55217
       H    -7.18661   14.21549    6.49095
       O    -7.73415   13.54354    6.13825
      H1    -8.39049   14.03313    5.62903
       H   -10.07957   15.49862    5.85707
       O    -9.69004   15.34352    4.99822
      H1   -10.55228   15.34713    4.52641
       H   -16.20956    6.95477    2.67377
       O   -16.35365    7.54212    3.42785
      H1   -16.65407    8.33778    2.88048
       H   -10.87155   13.72087   -0.94862
       O   -10.84313   14.41823   -0.28725
      H1   -11.41222   15.09621   -0.67952
       H   -11.25633    8.40400    4.25073
       O   -11.82794    7.76838    3.75039
      H1   -12.44657    7.40053    4.41832
       H   -11.70767    7.79748    0.60101
       O   -12.54125    8.21464    0.75637
      H1   -13.00704    8.17827   -0.10383
       H   -14.09488   11.24354   -5.20858
       O   -13.54641   11.42240   -4.44025
      H1   -13.09800   10.58313   -4.29581
       H   -13.43131   11.69813    1.63654
       O   -13.81105   10.82786    1.70642
      H1   -13.54331   10.47950    2.52029
       H   -17.93486   18.69989    5.06772
       O   -17.82648   17.74624    5.04389
      H1   -18.14014   17.39746    4.18248
       H    -9.69040   18.46668    5.16882
       O    -9.22912   18.23914    4.31449
      H1    -9.17661   17.25451    4.42559
       H   -18.74815   16.89346   -0.10353
       O   -17.76626   16.97297   -0.03799
      H1   -17.40548   16.08958   -0.18475
       H    -8.09162   13.34470   -1.26466
       O    -7.80233   14.02299   -1.90234
      H1    -7.38661   13.42027   -2.53326
       H   -13.68449   14.36827    0.98495
       O   -13.04825   13.91580    1.56495
      H1   -12.30241   13.88326    0.96750
       H   -18.08774   13.02973   -3.41927
       O   -17.83909   14.01137   -3.56321
      H1   -18.15943   14.27158   -4.42753
       H   -11.30118   10.47223   -2.16553
       O   -10.58280   10.20658   -2.71809
      H1   -10.05639    9.78240   -1.97943
       H   -12.71733   17.51958   -0.36206
       O   -12.05619   17.25768   -1.11822
      H1   -11.25831   17.81357   -0.88304
       H   -12.62909   13.04568    6.53316
       O   -12.39553   12.19534    6.86379
      H1   -11.69643   11.87291    6.29876
       H   -12.95778   14.10715   -4.48579
       O   -12.75905   13.66195   -5.33399
      H1   -12.99445   12.74001   -5.01604
       H   -16.72879   11.82165    4.94045
       O   -16.66311   10.83279    5.06947
      H1   -16.36501   10.82241    5.95577

