180
frame 2 | Written by MDAnalysis XYZWriter (release 2.4.3)
       H    11.48255  -12.31384   -3.82256
       O    10.67109  -12.72383   -4.14293
      H1    10.57442  -12.12647   -4.95272
       H    16.38412  -16.14068   -1.78646
       O    16.92139  -15.60160   -2.37726
      H1    17.77931  -15.89448   -1.96976
       H    11.52225   -7.32141    2.82655
       O    12.26555   -7.73201    3.21410
      H1    12.77089   -7.86534    2.37205
       H    13.20646   -8.38918   -7.54509
       O    13.90279   -8.41103   -8.24822
      H1    14.42733   -7.62470   -8.15771
       H    17.00394   -6.25945   -4.28483
       O    17.29967   -6.82119   -3.58205
      H1    18.02555   -6.27114   -3.21260
       H    11.56978  -13.34763    1.81681
       O    12.52272  -13.04954    1.93224
      H1    12.34016  -12.33785    2.60093
       H    14.20874   -4.40778   -4.39765
       O    14.03943   -4.81678   -5.24901
      H1    13.28256   -5.41547   -5.08125
       H    19.05927  -12.25637    0.16489
       O    19.27169  -12.86046   -0.57169
      H1    18.80681  -12.32354   -1.25188
       H    11.92065  -11.64173    0.81077
       O    12.23255  -10.82513    0.36880
      H1    11.47850  -10.59565   -0.13458
       H    12.48377   -5.91104   -1.88551
       O    12.44454   -4.92017   -2.06713
      H1    13.37763   -4.71191   -2.24864
       H    13.67578   -8.61447   -4.51623
       O    13.92242   -9.04935   -3.68619
      H1    13.29252   -9.76881   -3.51172
       H    16.18900   -6.48303   -7.37440
       O    15.82507   -6.57436   -6.45091
      H1    15.42102   -5.72159   -6.16504
       H    13.01211   -7.96851   -0.87296
       O    12.70033   -7.54771   -1.72005
      H1    13.23220   -8.00906   -2.43693
       H    19.02828   -1.41461    0.40020
       O    19.24962   -2.25063   -0.09407
      H1    18.37355   -2.30674   -0.60881
       H    12.53364   -3.69480   -0.31462
       O    12.49357   -3.56192    0.63389
      H1    11.65540   -3.03662    0.60476
       H    14.34989   -3.69161    2.99911
       O    14.28181   -2.81296    2.61651
      H1    13.67797   -2.86250    1.87004
       H    19.16379   -3.72956   -6.19811
       O    18.37212   -4.07534   -6.63841
      H1    17.78599   -3.44892   -6.14678
       H    17.90215   -3.47084   -1.89672
       O    17.08095   -3.01933   -1.53966
      H1    16.99532   -2.20423   -2.08392
       H    13.94242   -6.14093    5.03894
       O    12.97099   -6.12573    5.20723
      H1    12.67255   -6.68083    4.45039
       H    16.18856   -9.26091    1.80133
       O    16.23136   -8.38859    1.29485
      H1    16.74312   -8.56526    0.45611
       H    13.85433   -1.59173   -0.40258
       O    14.61765   -0.96475   -0.39747
      H1    14.62283   -0.78014   -1.32287
       H    16.36269  -15.58171    0.32245
       O    16.57845  -15.17568    1.18938
      H1    16.30273  -15.87150    1.81349
       H    10.50679   -6.91460   -1.23367
       O     9.60053   -6.65262   -1.03342
      H1     9.09663   -7.46898   -1.14341
       H    19.73249   -9.62134   -5.70116
       O    19.47058   -8.99535   -5.03898
      H1    18.50289   -9.10271   -4.97156
       H    15.74288   -2.97309    1.67133
       O    16.67330   -3.27262    1.45326
      H1    16.86473   -2.99501    0.49614
       H    17.23627  -12.81485   -7.64500
       O    17.87289  -12.07811   -7.87656
      H1    18.21803  -12.45487   -8.68498
       H    16.07665  -13.65929   -2.62516
       O    15.59555  -12.82603   -2.75790
      H1    16.25886  -12.33483   -3.26824
       H    18.39554   -4.58146    0.66331
       O    18.82775   -5.42769    0.68882
      H1    19.58923   -5.26847    1.19664
       H    14.48119   -8.39806    0.92562
       O    13.52938   -8.27059    0.82065
      H1    13.17264   -9.21661    0.93629
       H    13.62390  -11.96790   -2.67796
       O    12.69790  -11.57780   -2.68497
      H1    12.68140  -11.37378   -1.76347
       H    11.92188  -11.04058    4.15527
       O    12.08641  -10.50767    3.34654
      H1    11.75942   -9.65023    3.66967
       H    16.66166   -6.91141    5.12619
       O    17.15444   -6.65550    5.88881
      H1    17.52723   -5.78635    5.65740
       H    15.69125   -5.84036   -9.86150
       O    16.10431   -5.53151   -9.05309
      H1    16.96095   -5.28689   -9.33618
       H    18.73953   -3.70017   -8.47523
       O    18.36330   -3.80040   -9.34386
      H1    19.25963   -3.70958   -9.72113
       H    16.75199   -9.67749   -6.83985
       O    16.89447   -9.15137   -6.01763
      H1    16.33135   -8.40666   -6.08954
       H    18.64801   -9.36658    4.54838
       O    19.16597   -8.91607    3.92605
      H1    18.75836   -8.10369    3.61922
       H    18.81016   -7.39076   -8.41004
       O    18.42120   -7.84898   -9.27030
      H1    18.80878   -7.27704   -9.92868
       H    18.04918   -1.50133    2.63562
       O    19.01451   -1.49772    2.76216
      H1    19.23851   -0.65859    3.15144
       H    11.01176   -5.94816   -4.68747
       O    11.84414   -6.41642   -4.63635
      H1    12.22671   -6.09953   -3.83880
       H    15.78176  -12.02417   -1.24982
       O    16.00149  -11.33533   -0.58432
      H1    16.20382  -11.81689    0.18042
       H    13.68839   -1.90035   -4.12743
       O    12.89075   -2.29945   -3.74587
      H1    12.31915   -2.42722   -4.53368
       H    17.27684  -10.76166   -8.69411
       O    16.70341   -9.97214   -8.83863
      H1    17.47316   -9.30332   -9.01466
       H    13.52784   -3.57703   -6.37108
       O    13.50977   -2.91355   -7.04040
      H1    13.56182   -3.45947   -7.84281
       H    11.10577   -7.77122   -7.26983
       O    11.46464   -8.44034   -6.68972
      H1    11.27771   -7.98545   -5.85128
       H    19.05777   -6.28290   -6.56069
       O    19.46119   -7.07792   -6.92093
      H1    19.41327   -7.72023   -6.15760
       H    15.87539   -5.53987   -2.47054
       O    15.26256   -4.79000   -2.54339
      H1    15.76919   -4.10501   -2.15729
       H    19.88482   -4.62233   -2.37143
       O    18.97882   -4.88649   -2.04267
      H1    19.13110   -5.19702   -1.14760
       H    18.15371   -9.46580   -1.17242
       O    18.02493   -8.57726   -0.72929
      H1    17.89659   -8.07845   -1.58183
       H    14.41298  -15.49197   -4.96482
       O    14.22805  -14.64167   -5.45068
      H1    14.23655  -14.05045   -4.66958
       H    16.96124   -7.41348    2.58893
       O    17.39591   -6.70950    3.11864
      H1    18.02587   -6.25923    2.47832
       H    16.36794   -9.91062   -4.57066
       O    16.24969  -10.36488   -3.69503
      H1    15.35991  -10.05309   -3.40461
       H    15.69513   -1.55577   -4.11812
       O    16.19897   -2.18778   -4.62564
      H1    16.62425   -1.73945   -5.31125
       H    11.45384   -4.96914    1.00991
       O    10.93669   -5.69559    1.38874
      H1    10.57255   -6.06324    0.54687
       H    13.27513  -13.98031    0.09857
       O    13.32198  -14.88105   -0.23814
      H1    12.60369  -14.77050   -0.91208
       H    18.93317  -10.30702   -3.11833
       O    18.49833  -10.62361   -2.28106
      H1    17.55835  -10.60871   -2.58391
       H    13.83712  -10.53222    2.96468
       O    14.84150  -10.51102    2.89380
      H1    15.13581  -11.33236    2.46125
       H    17.86651  -11.47398    6.41226
       O    17.78515  -11.36255    5.42906
      H1    17.35456  -12.19826    5.28457
       H    15.64342   -9.87890    4.53529
       O    15.90670   -9.44823    5.34992
      H1    16.62509  -10.07411    5.54788
       H    15.78111   -5.60621    2.91742
       O    14.84579   -5.39066    3.13154
      H1    14.32759   -5.72908    2.33118
       H    16.80332  -13.06395    2.30644
       O    16.95510  -12.34761    1.65620
      H1    17.74588  -11.82360    2.00714

