180
frame 7 | Written by MDAnalysis XYZWriter (release 2.4.3)
       H     1.23189    4.21535   -8.91131
       O     0.66966    4.99033   -8.59686
      H1     0.31094    5.34657   -9.36426
       H    -1.05038    0.60108  -13.10065
       O    -1.93825    0.40453  -12.77035
      H1    -2.51558    0.86163  -13.42763
       H    -6.16132    3.03860   -5.36924
       O    -6.75607    3.81333   -5.09117
      H1    -6.43780    4.53604   -5.65654
       H    -1.75220   -2.86230  -12.92561
       O    -2.24426   -2.26472  -13.49560
      H1    -2.01462   -1.37129  -13.11431
       H    -7.39518    1.90022   -7.87109
       O    -7.30855    1.18862   -7.20333
      H1    -8.17745    0.83061   -7.05280
       H    -7.04777   -1.17049   -9.58797
       O    -7.85864   -0.82925   -9.17112
      H1    -7.53884   -0.22699   -8.48297
       H     2.62469    2.35610   -9.03104
       O     2.67647    3.20217   -9.46979
      H1     2.11164    3.12520  -10.25788
       H    -3.45934    5.07561  -12.70402
       O    -3.55877    4.57485  -13.47846
      H1    -4.54484    4.73892  -13.62750
       H    -1.82678    3.75078   -4.49657
       O    -0.88344    3.85080   -4.83484
      H1    -0.69054    4.78380   -4.84957
       H    -5.30374    1.21163  -14.86194
       O    -6.23494    0.83794  -14.80836
      H1    -6.61413    0.93237  -15.69345
       H    -4.38672    3.60483   -3.77640
       O    -3.61647    3.88458   -4.25893
      H1    -4.05946    4.21433   -5.03318
       H     0.35387   -3.10198   -7.30935
       O     0.95075   -3.12633   -6.55444
      H1     1.16923   -4.10683   -6.63357
       H     3.22237    2.61611  -12.03667
       O     4.23353    2.50937  -12.20816
      H1     4.49534    3.43572  -12.24757
       H    -2.83472    0.72788   -4.25623
       O    -2.44930    0.21072   -3.52665
      H1    -1.60390    0.68902   -3.35466
       H     2.64394   -0.08163  -11.98282
       O     3.27009   -0.18877  -12.72007
      H1     3.88472    0.50959  -12.53518
       H    -5.99235   -2.29191  -13.54368
       O    -6.59631   -1.74921  -14.06136
      H1    -6.29879   -0.84321  -13.90603
       H    -0.74409    5.76392  -11.47204
       O    -0.12704    4.98938  -11.46710
      H1    -0.13378    4.76872  -12.43738
       H    -3.19860   -0.15353   -1.81629
       O    -3.20149   -0.55031   -0.94970
      H1    -3.88916    0.00342   -0.52539
       H     3.82654   -3.08855  -10.58947
       O     3.17546   -3.60100  -10.11201
      H1     3.29857   -3.06559   -9.31082
       H     1.67914   -2.49795  -12.62653
       O     1.28947   -2.40446  -11.70698
      H1     1.91628   -2.89266  -11.05577
       H    -2.22729    4.81334   -9.81120
       O    -2.30163    3.93141   -9.47744
      H1    -1.78380    3.99582   -8.65366
       H     0.71373    2.24014  -11.94311
       O     1.56747    2.54899  -12.30380
      H1     1.43033    2.91454  -13.15390
       H    -1.32700    1.44000  -11.28463
       O    -0.63209    2.01940  -10.86239
      H1    -1.15662    2.74480  -10.48523
       H    -2.15605   -4.51311  -10.55901
       O    -2.58238   -4.86770   -9.78175
      H1    -3.41620   -4.39600   -9.69942
       H     2.55274   -0.27181   -9.43592
       O     1.85780   -0.07786  -10.02922
      H1     1.44096   -0.91889  -10.12115
       H     2.69610   -1.67138   -7.21398
       O     3.38339   -2.11974   -7.76290
      H1     4.11662   -2.21054   -7.12702
       H    -8.15963    0.03472  -10.50020
       O    -8.63648    0.41362  -11.25262
      H1    -8.85848   -0.38333  -11.73435
       H    -3.66016    1.89145  -15.33212
       O    -3.91858    1.85658  -14.35773
      H1    -3.89786    2.81352  -14.07656
       H    -2.80900   -1.66662   -3.95275
       O    -3.00548   -2.57206   -4.18845
      H1    -4.00953   -2.45105   -4.27326
       H     2.91066    0.21239   -4.58655
       O     3.73528    0.78934   -4.66252
      H1     3.44124    1.59153   -4.16012
       H     0.00920   -3.67776  -12.03912
       O    -0.85298   -4.09201  -12.04814
      H1    -0.50412   -4.98300  -12.29440
       H    -6.51540    0.09124   -2.57678
       O    -6.18152   -0.50074   -3.28199
      H1    -5.68184   -1.22624   -2.82955
       H    -1.51886   -2.93154   -7.53703
       O    -0.90209   -2.66688   -8.30054
      H1    -0.94239   -1.71298   -8.29688
       H    -8.11467   -2.73023   -8.34905
       O    -8.11377   -3.43150   -7.71402
      H1    -8.80028   -4.08643   -7.91952
       H    -3.04584    0.75868   -7.14652
       O    -3.18174    0.75172   -6.19429
      H1    -4.12905    0.97108   -6.14033
       H    -0.24279    0.80067   -7.50853
       O     0.10598    0.05893   -7.97957
      H1     0.51432    0.37633   -8.78290
       H    -5.87410    5.14659   -8.74146
       O    -6.62435    5.45086   -9.31833
      H1    -6.15271    5.34415  -10.17490
       H    -5.18170   -2.04448  -11.04968
       O    -5.41486   -1.59263  -10.23787
      H1    -4.76935   -0.86065  -10.37769
       H    -8.28936    1.87515  -12.76753
       O    -8.62855    2.14278  -13.68704
      H1    -8.06215    1.68098  -14.33741
       H    -6.79419   -4.69922   -8.58242
       O    -5.97880   -5.23728   -8.66500
      H1    -5.38121   -4.63414   -8.20968
       H    -6.45647    5.34513  -11.93724
       O    -5.55885    5.61183  -11.64937
      H1    -5.60861    6.53841  -11.54321
       H    -2.17152   -3.83984   -5.64659
       O    -1.91671   -4.56114   -6.23398
      H1    -1.34026   -5.06347   -5.66323
       H    -3.22509   -5.74766   -6.13334
       O    -4.15973   -6.08338   -6.05978
      H1    -4.61980   -5.28709   -5.86069
       H    -0.16422    3.57959   -7.66558
       O    -0.80845    2.95041   -7.37350
      H1    -0.82953    3.25470   -6.41103
       H    -6.99577    3.83202   -9.45561
       O    -6.88335    2.85959   -9.24820
      H1    -7.81044    2.63502   -9.47169
       H    -0.82022   -5.34015   -8.83928
       O    -0.04897   -5.93331   -8.66159
      H1    -0.42411   -6.80925   -8.69269
       H     1.10401   -1.34877   -4.49741
       O     1.32975   -0.48886   -4.92443
      H1     1.15247   -0.67655   -5.88116
       H    -1.64647    7.55745   -8.03818
       O    -2.44980    7.17022   -8.45292
      H1    -3.03434    7.96677   -8.49159
       H     1.96492   -3.66194   -3.61561
       O     1.05931   -3.35423   -3.66603
      H1     1.00820   -3.34291   -4.66296
       H    -1.89332    7.77596  -11.54365
       O    -1.92528    6.97970  -11.00639
      H1    -2.07815    7.28128  -10.12632
       H    -3.91252    4.36042   -7.41996
       O    -4.57717    5.00163   -7.33647
      H1    -4.02788    5.72827   -7.66558
       H     0.20260    0.92931   -4.37155
       O    -0.00540    1.61298   -3.65239
      H1    -0.06587    2.41219   -4.19707
       H     4.75642   -0.00008   -8.52524
       O     3.97886    0.51642   -8.14456
      H1     3.78504   -0.05417   -7.39067
       H    -1.74571    0.54279   -8.65157
       O    -2.69811    0.61292   -8.71612
      H1    -2.75118    1.45488   -9.16412
       H    -3.75674   -2.95500  -12.98484
       O    -4.65468   -3.01798  -12.57068
      H1    -4.97137   -3.88288  -12.70236
       H    -4.80331   -2.12512   -8.44795
       O    -4.37809   -2.85271   -7.97766
      H1    -3.54059   -2.46868   -7.83357
       H    -5.35563    1.80817  -11.94869
       O    -5.29259    1.39467  -11.11180
      H1    -5.89246    1.93606  -10.59240
       H    -6.10879    1.44780   -5.90186
       O    -5.43742    1.49555   -5.19275
      H1    -5.75582    0.72514   -4.64886
       H    -0.47006    1.94208  -15.31537
       O    -0.07911    1.06872  -15.04795
      H1    -0.46475    0.34558  -15.65474
       H    -5.28381   -3.24307   -6.20239
       O    -5.41832   -3.56594   -5.29560
      H1    -6.36177   -3.43494   -5.16983

