180
frame 4 | Written by MDAnalysis XYZWriter (release 2.4.3)
       H    10.56160   11.99002  -15.87997
       O    10.80185   12.91662  -16.00549
      H1    11.26122   13.14718  -15.15030
       H    16.05469   10.07539   -6.14602
       O    16.27826   10.59139   -6.98994
      H1    15.38790   11.03367   -7.09117
       H    15.34663   16.05285  -14.62731
       O    15.14588   15.78767  -13.72643
      H1    14.21340   15.87891  -13.78268
       H    12.09758    4.66069  -17.57617
       O    11.36364    5.25932  -17.39714
      H1    10.75465    4.70104  -16.87977
       H    16.54610   11.11736  -15.16672
       O    17.33872   11.53125  -14.70518
      H1    17.63309   12.19340  -15.35072
       H    16.19541    7.64999   -9.33831
       O    17.06890    7.28960   -9.17652
      H1    17.16467    6.42467   -9.67866
       H    12.19544    8.96037  -13.22624
       O    11.70292    8.56161  -13.96289
      H1    12.26388    7.89756  -14.26140
       H    19.10382    9.26676   -8.04721
       O    19.27476    9.63204   -8.92826
      H1    18.40011    9.88654   -9.19678
       H    18.21226   14.92782  -18.57693
       O    18.32607   15.75486  -18.05317
      H1    17.56918   15.54881  -17.45401
       H    11.60301   15.97175  -17.14152
       O    12.38201   15.73900  -16.63443
      H1    12.78177   15.09189  -17.28781
       H     9.97330    9.64817  -17.56154
       O    10.58856    9.60570  -18.27892
      H1    10.37326   10.44107  -18.70690
       H    10.98344   15.43949  -12.31910
       O    10.60923   15.65203  -11.48280
      H1     9.68590   15.86094  -11.68188
       H    14.87673   10.63669  -17.26122
       O    15.82306   10.73840  -16.93431
      H1    16.23922   10.08372  -17.56840
       H    16.26289    6.25347  -14.96096
       O    17.24393    6.49162  -15.04332
      H1    17.26619    7.11552  -15.80453
       H    14.04221    4.12926  -18.50542
       O    13.52426    3.62623  -17.84224
      H1    13.01766    2.96518  -18.37988
       H    16.87465   19.06684  -13.36756
       O    16.76397   19.81201  -12.76035
      H1    15.99036   19.56840  -12.22200
       H     7.75563   12.48701  -15.56299
       O     8.10767   13.34042  -15.89113
      H1     9.06490   13.07294  -15.84275
       H    16.91425   13.57691  -17.11915
       O    16.24820   14.23125  -16.82966
      H1    15.44809   13.91549  -17.29398
       H    16.00645    8.80003  -14.67459
       O    15.20363    8.84757  -15.24399
      H1    15.53765    9.60454  -15.85336
       H    18.64521    7.16690  -19.57197
       O    18.58414    7.25001  -18.57914
      H1    18.09818    6.38844  -18.42731
       H    15.21751    5.34130  -12.93879
       O    14.90261    6.22163  -13.13383
      H1    14.39677    6.07602  -13.94226
       H    16.78382    3.82443  -12.09022
       O    17.22018    4.57041  -11.69786
      H1    17.96607    4.51315  -12.31615
       H    11.96919    6.11811  -15.81829
       O    12.40279    6.16585  -14.94908
      H1    11.88785    5.48433  -14.42042
       H    15.78329    8.71864  -19.50657
       O    16.10491    8.62287  -18.63891
      H1    16.99029    8.18468  -18.73763
       H    13.30212   13.30435  -17.56749
       O    13.64042   13.99818  -18.11595
      H1    13.69070   13.66409  -19.02085
       H     9.12940    7.16547  -12.95842
       O    10.05733    6.83184  -12.68279
      H1    10.77805    7.39191  -13.06366
       H    12.47075   15.82347  -14.68243
       O    12.39234   15.67294  -13.69720
      H1    12.02271   16.52201  -13.38618
       H    14.94745   17.23256  -12.49191
       O    14.81719   17.92648  -11.75582
      H1    15.12761   17.51048  -10.86662
       H    17.18472   12.11585   -7.03576
       O    17.93865   12.72625   -7.16137
      H1    17.45396   13.56589   -7.08998
       H    15.94159   12.59756  -13.24627
       O    15.22108   13.15488  -13.02296
      H1    15.37374   13.96196  -13.48386
       H    14.79767    3.06029  -16.70652
       O    15.58976    2.85166  -16.12908
      H1    15.36926    1.87445  -15.99383
       H    14.96496    7.53594  -11.45778
       O    14.90898    8.19654  -10.72928
      H1    14.20495    8.72499  -11.23478
       H    19.42566   15.78514  -13.83465
       O    19.51858   16.33966  -13.06503
      H1    19.02524   15.88556  -12.36585
       H    18.10595    4.94930  -17.79516
       O    17.17858    5.15749  -17.76173
      H1    16.98222    5.44822  -16.84930
       H    10.69281    9.85311  -15.23841
       O    10.09140   10.39162  -15.82582
      H1     9.20560   10.10936  -15.50491
       H    18.36157   15.43059   -9.90751
       O    17.75001   15.70418  -10.62673
      H1    17.28284   14.92468  -10.77901
       H    14.78401    7.31105  -15.96068
       O    14.73788    6.47315  -16.38902
      H1    13.91659    6.06258  -16.12818
       H    18.40285    4.76360  -10.21370
       O    19.20975    5.10923   -9.82217
      H1    19.11804    4.80874   -8.88501
       H    12.43638    8.22278  -18.17797
       O    12.86739    7.61945  -18.75779
      H1    13.62973    7.38615  -18.23870
       H    19.25593   18.21567  -12.41608
       O    19.30765   19.05820  -11.96682
      H1    18.38466   19.38804  -12.00343
       H    18.62750   11.14252  -13.72373
       O    19.40796   11.27789  -13.14875
      H1    19.79264   10.43183  -12.94437
       H    19.73774    8.25249  -12.09846
       O    19.73307    8.59493  -13.03376
      H1    18.76640    8.50554  -13.21895
       H    11.62325   13.44906   -7.99200
       O    12.44334   13.08781   -8.30818
      H1    12.41276   13.32273   -9.25894
       H    16.16041   18.57369  -15.56593
       O    16.79524   18.01713  -15.08891
      H1    17.59952   18.17577  -15.54832
       H    10.84766   13.83373  -10.83273
       O    11.14803   12.88661  -10.75781
      H1    10.31332   12.49690  -10.50430
       H    19.27648   13.89758  -17.35153
       O    19.08003   13.60151  -16.46482
      H1    19.97117   13.36926  -16.17516
       H    16.89254    9.31459  -12.23921
       O    17.05115    8.64857  -12.93308
      H1    16.88432    7.82899  -12.44736
       H    18.35855    2.23673  -15.42872
       O    18.16736    3.20508  -15.50369
      H1    17.21581    3.15957  -15.86212
       H    12.72357    5.48059   -9.76463
       O    13.19275    5.01737  -10.46542
      H1    13.14908    5.57086  -11.25815
       H    13.11337   10.55615  -12.61979
       O    13.17371    9.76051  -12.03564
      H1    12.67160   10.15988  -11.28976
       H    13.19052   11.69701   -7.54292
       O    13.66322   11.16842   -6.90865
      H1    13.33165   10.27149   -7.05225
       H    18.80706    4.12212  -14.04968
       O    19.18936    4.94080  -13.58810
      H1    18.70744    5.66168  -14.14134
       H    13.97742   17.60839  -18.67213
       O    13.73592   17.72924  -17.73472
      H1    13.46194   16.85159  -17.41970
       H    16.00043   10.09197  -10.52523
       O    16.95724   10.22580  -10.43862
      H1    17.01850   11.17750  -10.60900
       H    18.68864   12.18197  -11.76237
       O    18.25174   12.64259  -11.01626
      H1    18.87404   12.71907  -10.30091
       H    10.48095   12.62505  -19.58138
       O     9.89647   12.21773  -18.90614
      H1    10.22195   12.66609  -18.10711
       H    15.69998    3.01807  -14.35897
       O    15.71009    2.99576  -13.38987
      H1    14.92351    2.35788  -13.31007
       H    12.27568   10.88474  -17.33374
       O    13.23912   10.77619  -17.39306
      H1    13.31155   10.92974  -18.31495
       H    16.65370   16.64841   -9.70091
       O    15.73345   16.89493   -9.40133
      H1    15.89344   17.64131   -8.78580
       H    13.17132   12.50843  -13.51474
       O    12.26474   12.14421  -13.38348
      H1    11.91068   12.65862  -12.62676

