180
frame 10 | Written by MDAnalysis XYZWriter (release 2.4.3)
       H    11.11016   10.61827  -16.48666
       O    11.23907   11.64777  -16.59068
      H1    12.08769   11.82402  -16.25177
       H    17.24634   18.04316   -2.29697
       O    16.64111   18.83239   -2.31937
      H1    16.58850   19.23015   -3.14986
       H    15.89988   10.26928   -7.46856
       O    15.99836   11.21049   -7.33232
      H1    15.59180   11.44246   -8.18202
       H    15.73416   14.39238  -14.49395
       O    15.07122   14.47898  -13.78436
      H1    14.24047   14.72711  -14.30138
       H     8.71791   17.10948  -15.74412
       O     9.23203   17.36119  -16.50846
      H1     9.30136   18.29451  -16.42170
       H    11.95264   15.72692  -19.17514
       O    11.39908   15.15538  -18.57812
      H1    10.63829   15.81215  -18.40404
       H    13.91241   17.79726   -5.71289
       O    14.71599   18.35786   -5.48011
      H1    15.26639   17.81047   -4.92809
       H    14.96619   18.62173   -7.40872
       O    15.73392   18.44474   -7.91961
      H1    15.91379   17.50262   -7.69072
       H    18.45675   15.51895  -16.62457
       O    18.67598   16.26458  -15.97777
      H1    17.86029   16.43081  -15.48989
       H    18.93546   12.03354  -15.67395
       O    19.35544   12.78915  -15.27956
      H1    19.84549   13.21788  -16.00447
       H    15.99174   17.57535  -16.25177
       O    16.44000   17.75645  -15.40578
      H1    16.30999   18.71063  -15.53826
       H    18.84597   10.20607   -9.27147
       O    19.24608   10.96293   -9.73917
      H1    18.64630   11.69745   -9.56192
       H    18.17018   13.92628  -18.93967
       O    17.80125   14.54351  -18.28250
      H1    17.40859   13.99474  -17.62437
       H    12.84690   15.09834  -17.22291
       O    13.46809   14.83776  -16.53992
      H1    13.73338   13.94277  -16.80657
       H     9.68449   18.17920  -11.28986
       O     9.79037   19.11860  -11.52789
      H1    10.22989   19.10441  -12.41270
       H    17.89592    9.89867  -16.17478
       O    17.78782   10.51538  -15.39392
      H1    17.89437    9.88615  -14.66721
       H    18.39353   18.60663  -13.65118
       O    18.27668   18.65778  -12.67389
      H1    17.43779   18.11503  -12.58206
       H     9.43789   13.47102  -14.67176
       O     9.24947   12.71627  -15.26725
      H1    10.07679   12.55751  -15.70762
       H    11.38424   19.57167  -10.69901
       O    12.27019   19.76549  -10.37445
      H1    12.61055   18.89224  -10.09055
       H    12.83844   12.70680   -8.85026
       O    12.09024   12.77824   -8.21557
      H1    11.63099   13.53819   -8.62478
       H    17.52069   13.12699  -15.47750
       O    16.74961   13.56488  -15.93761
      H1    16.19550   12.77656  -16.13649
       H    10.46744   16.48385   -8.31947
       O    10.72988   15.55592   -8.35621
      H1    10.34580   15.18208   -7.46456
       H    15.74013   10.50533  -14.56098
       O    15.04992   10.60380  -13.92589
      H1    15.48748   11.07737  -13.23367
       H    19.16303   15.81982   -5.66275
       O    18.90715   16.38701   -4.93586
      H1    18.91080   17.25690   -5.37506
       H    18.86591    9.27907  -17.98274
       O    18.27350    8.71246  -17.39432
      H1    18.74839    7.89490  -17.13285
       H    14.03903   11.66046  -17.91860
       O    14.55765   12.42228  -17.59749
      H1    15.32671   12.42967  -18.15477
       H    10.46355   18.37330  -19.35936
       O    11.05100   18.64149  -18.62537
      H1    11.06121   19.59931  -18.45196
       H    16.96022   13.43543   -5.02281
       O    16.99892   13.53360   -4.10126
      H1    16.29497   13.04855   -3.66532
       H    11.64909   15.29818  -15.61946
       O    10.86896   15.22738  -15.03695
      H1    10.44336   16.06105  -15.22129
       H    15.62330   16.25827  -12.87832
       O    15.83488   17.22077  -12.71630
      H1    15.89657   17.60084  -13.57202
       H    16.86539   12.82640   -7.20626
       O    17.58711   13.38372   -6.93918
      H1    17.22851   14.32607   -7.10296
       H    16.77725   12.61916  -11.92282
       O    15.81749   12.37255  -12.06519
      H1    15.56695   13.04694  -12.79896
       H    20.11535   15.12906   -8.46472
       O    19.75456   14.73405   -7.64818
      H1    18.99207   14.25567   -7.90863
       H    13.45509    9.45533  -10.41146
       O    14.25185    9.39942   -9.83958
      H1    13.73658    9.01576   -9.07451
       H    18.12844   15.90655   -3.22901
       O    18.02237   16.32483   -2.34294
      H1    18.27194   15.53426   -1.78323
       H    17.44460   17.10867   -9.61637
       O    17.32684   16.36311  -10.22818
      H1    16.73392   16.66629  -10.88609
       H    18.38992   11.77162   -6.65088
       O    18.88837   10.91261   -6.41505
      H1    18.31550   10.31416   -6.91942
       H    14.92553    8.66561  -14.40077
       O    14.79536    7.83751  -14.82695
      H1    14.63862    8.15255  -15.72729
       H    18.98989    8.66997  -12.82340
       O    18.22963    8.72015  -13.38397
      H1    17.52549    8.65562  -12.69918
       H    10.65166   12.15983  -11.26731
       O    11.54033   12.41966  -11.58052
      H1    11.56648   13.38934  -11.60260
       H     9.79828   18.49232   -6.94998
       O    10.21815   18.88808   -6.17327
      H1    10.72767   18.24615   -5.71455
       H    10.89244   18.48826  -14.56524
       O    10.85117   19.33068  -14.04358
      H1    11.64314   19.83573  -14.24319
       H    18.91518   18.51793  -15.73539
       O    19.24951   19.28174  -15.24489
      H1    18.80475   20.04774  -15.69893
       H    10.73875   16.00346  -11.82900
       O    11.41134   15.26706  -11.97487
      H1    11.56873   15.41415  -12.93249
       H     8.13823   16.51447  -12.54437
       O     8.58068   16.43229  -11.67574
      H1     8.83438   15.48007  -11.74174
       H    17.41318   16.10729   -6.28832
       O    16.75748   15.94228   -6.97275
      H1    16.08724   15.50597   -6.37212
       H    15.13699    8.90647  -11.42556
       O    15.87328    8.35251  -11.80037
      H1    15.35224    7.67962  -12.19674
       H    13.52009   10.33862  -12.51805
       O    12.87911    9.94384  -12.00853
      H1    12.38816   10.65629  -11.66676
       H    14.04510   13.92443   -5.73904
       O    14.60842   14.71750   -5.69591
      H1    14.06672   15.25824   -6.24527
       H     8.62498   17.29080   -9.01882
       O     9.37487   17.86168   -8.75397
      H1     8.84193   18.72654   -8.82679
       H    16.02941   16.01052   -3.06351
       O    15.22498   16.17777   -3.49423
      H1    15.13542   15.44022   -4.10059
       H    12.33150   15.92777   -7.64606
       O    12.97560   16.54626   -7.33867
      H1    13.40814   16.66332   -8.20397
       H    14.89875   12.25741  -10.64368
       O    14.62954   12.02789   -9.70744
      H1    14.48992   11.07866   -9.66352
       H    13.52383   11.55240   -5.37573
       O    14.30358   11.09659   -5.05734
      H1    14.81188   11.16723   -5.88361
       H    13.97466   17.75769  -17.42434
       O    14.73665   17.15245  -17.51205
      H1    14.29240   16.30941  -17.28113
       H    17.88401   14.33963  -10.08442
       O    18.21208   13.42352  -10.10434
      H1    19.02232   13.54748  -10.61468
       H    18.35836   19.45356   -6.87655
       O    19.03785   18.94421   -6.42935
      H1    19.73436   18.91307   -7.08434
       H    12.07152   18.22818  -17.01767
       O    12.49424   17.83840  -16.21191
      H1    12.89438   18.61943  -15.83936
       H    14.39602   17.24153  -10.65056
       O    13.85595   17.45245   -9.86267
      H1    14.57023   17.91933   -9.40659
       H    13.74755   11.89474  -14.35596
       O    13.07506   12.56551  -14.22515
      H1    12.72305   12.37908  -13.35180

