180
frame 6 | Written by MDAnalysis XYZWriter (release 2.4.3)
       H    -0.36179   -0.47835    5.75564
       O     0.16880   -0.50446    4.93583
      H1    -0.40185   -1.14214    4.44597
       H    -3.31077   -3.78571   -0.11225
       O    -3.34446   -4.72194    0.24173
      H1    -3.97718   -4.57244    0.99244
       H    -0.27718   -0.07368   -0.03299
       O    -0.88123   -0.72033    0.49382
      H1    -1.69523   -0.82153   -0.00845
       H    -6.73321    2.41291   -5.30918
       O    -6.98789    3.32355   -5.14034
      H1    -6.67813    3.83822   -5.87513
       H   -10.79575   -2.33546   -0.15340
       O   -10.11507   -1.70605   -0.44567
      H1    -9.35980   -2.18453   -0.03183
       H    -3.40644   -7.88223   -2.85153
       O    -2.59118   -7.44375   -3.13545
      H1    -2.78929   -6.48573   -3.03607
       H    -1.98846    3.55701   -4.97067
       O    -1.09426    3.52597   -5.31576
      H1    -0.65126    4.28612   -4.82118
       H    -4.40511    3.70351   -3.55583
       O    -3.65070    3.81985   -4.11897
      H1    -3.82978    3.09893   -4.72840
       H     0.19479   -3.48857   -7.05190
       O     0.67196   -3.23931   -6.24451
      H1     1.04931   -4.09461   -5.98168
       H    -2.86853    0.59538   -4.15407
       O    -2.58582    0.01778   -3.42731
      H1    -1.76262    0.49329   -3.18445
       H     0.66002   -6.42212   -1.17479
       O     1.06126   -5.55542   -1.14584
      H1     0.29929   -4.93534   -0.91727
       H    -6.00798   -5.11697   -2.72336
       O    -5.59897   -4.88366   -1.85047
      H1    -4.70437   -5.16579   -1.94741
       H    -3.32798   -0.70052   -1.63815
       O    -3.42086   -1.01359   -0.72953
      H1    -3.94549   -0.31131   -0.24808
       H    -6.03071    4.51221   -2.20162
       O    -5.94641    3.58934   -2.62071
      H1    -6.32548    3.72455   -3.52444
       H    -0.87576    5.92417   -3.67347
       O     0.03574    5.57145   -3.54371
      H1    -0.11013    5.33450   -2.63418
       H     2.33270   -4.78345   -2.07895
       O     2.78264   -4.28593   -2.81583
      H1     3.48010   -3.79868   -2.34616
       H    -6.06033   -1.97777    2.98725
       O    -5.63993   -1.76324    2.10558
      H1    -6.39184   -2.10291    1.52667
       H    -6.73220    5.67346   -0.56753
       O    -5.83384    5.56144   -0.96257
      H1    -5.38335    6.44043   -0.54784
       H    -6.37803   -5.73963   -0.32540
       O    -6.86220   -6.54600   -0.10373
      H1    -7.26168   -6.40602    0.74727
       H    -9.51947   -1.05799    3.38547
       O    -8.90296   -0.71929    2.67355
      H1    -8.82596   -1.46563    2.03976
       H    -4.94584   -3.29658    2.49528
       O    -4.94416   -4.26796    2.48946
      H1    -4.74211   -4.29404    3.46227
       H    -1.00911    5.23976    0.41237
       O    -1.91336    5.17507    0.84380
      H1    -1.71725    5.22353    1.79602
       H    -2.00325   -7.16518   -1.52331
       O    -1.46154   -6.87766   -0.73781
      H1    -1.99287   -6.20997   -0.30747
       H    -7.93845   -3.90996    1.14244
       O    -8.14594   -3.07877    0.72647
      H1    -7.49149   -2.91140    0.03518
       H    -9.32780   -1.16492   -4.02252
       O    -8.61387   -0.96901   -4.68990
      H1    -7.94665   -0.68749   -4.03823
       H    -2.79200   -1.59666   -3.88804
       O    -3.20543   -2.47528   -4.17394
      H1    -3.81652   -2.20946   -4.83188
       H     3.01960    0.92402   -3.48334
       O     3.88433    1.08299   -3.10044
      H1     3.66362    1.89783   -2.61320
       H    -2.47762   -1.31671    3.37268
       O    -2.11242   -2.07462    3.85551
      H1    -2.09064   -2.83572    3.25457
       H    -6.53708    0.64864   -2.45067
       O    -6.04516   -0.02960   -2.91136
      H1    -6.28387   -0.75033   -2.29425
       H    -1.81702   -3.31206   -7.22305
       O    -1.41368   -2.75181   -7.93827
      H1    -1.83400   -1.87404   -7.76742
       H     0.45417   -0.28179    1.96231
       O     0.92423    0.47490    2.27497
      H1     0.88594    0.38337    3.22406
       H    -3.02345    6.96486   -3.99472
       O    -2.49613    6.26842   -4.38991
      H1    -2.99367    5.43382   -4.27484
       H    -6.44159   -5.15842    2.44980
       O    -7.38425   -5.28907    2.32772
      H1    -7.63157   -5.65855    3.20941
       H     0.87662    4.24402   -0.56180
       O     0.56277    5.14247   -0.57774
      H1     1.22862    5.50876    0.04535
       H    -0.85468   -4.19508    2.18675
       O    -1.76987   -4.41983    2.46373
      H1    -2.29049   -4.62279    1.64627
       H    -6.83111    2.37070   -1.73246
       O    -7.53828    1.68406   -1.58024
      H1    -7.36628    1.41125   -0.67004
       H    -2.97223    1.37951   -6.95321
       O    -3.19558    1.69770   -6.04880
      H1    -4.07824    1.31901   -5.95194
       H     2.92910    2.95416   -0.14565
       O     2.33535    2.65514    0.58016
      H1     1.78656    2.02107    0.16956
       H    -4.73311    4.27064   -0.16312
       O    -4.40178    3.67173    0.50002
      H1    -3.53698    4.03901    0.65577
       H    -2.27832    1.24317    3.86168
       O    -3.06808    0.71019    3.58397
      H1    -3.82619    1.05089    4.13519
       H    -5.05120   -1.61811   -0.87680
       O    -5.90080   -2.14193   -0.98180
      H1    -5.57269   -2.99679   -1.29739
       H    -8.33018    3.23345   -0.79785
       O    -8.63026    4.01165   -0.31184
      H1    -8.74892    4.73254   -0.96824
       H    -2.61865   -4.41166   -5.63045
       O    -2.08039   -4.65046   -6.36884
      H1    -1.31166   -5.05019   -5.92490
       H    -3.23835   -6.22296   -6.44280
       O    -4.16523   -6.49098   -6.43243
      H1    -4.54015   -5.57889   -6.29245
       H    -1.79049   -4.52108   -2.05750
       O    -2.59561   -4.68549   -2.59591
      H1    -2.61108   -3.87224   -3.14855
       H     1.54145   -3.91563    1.20102
       O     0.99274   -3.47268    1.85799
      H1     1.60849   -3.19759    2.55330
       H     1.02125   -0.74765   -3.74720
       O     1.50086   -0.02403   -4.19959
      H1     1.44772   -0.20865   -5.15250
       H     1.56334   -3.21049   -3.21778
       O     0.74601   -2.69645   -3.48764
      H1     0.62685   -2.88679   -4.42459
       H     0.24151    1.04113   -3.95221
       O    -0.23154    1.63868   -3.28379
      H1    -0.71810    2.24812   -3.86985
       H     3.46815   -0.11757    0.20065
       O     3.26822   -0.38980   -0.65814
      H1     3.97806   -0.02958   -1.16839
       H    -8.12551   -2.41141   -5.41197
       O    -8.08920   -3.39102   -5.46560
      H1    -8.13981   -3.55069   -6.49162
       H    -6.61459    0.71915    1.15310
       O    -7.52565    1.11228    1.18606
      H1    -7.91708    0.43449    1.81430
       H    -6.99578   -4.82609   -4.67936
       O    -6.28843   -5.47854   -4.48916
      H1    -5.46911   -4.96104   -4.59004
       H    -4.11729    0.88803    1.62633
       O    -4.47801    0.92896    0.74458
      H1    -4.44601    1.88606    0.71242
       H     0.73890    0.79081   -1.88825
       O     0.95259    0.67940   -0.97828
      H1     1.87276    0.38702   -0.94640
       H    -6.04125    0.59784   -6.11919
       O    -5.65630    0.97116   -5.32744
      H1    -5.99669    0.37636   -4.58121
       H    -6.80770    2.81211    2.23963
       O    -6.25745    3.47261    2.66932
      H1    -5.52923    3.68665    2.04306
       H    -5.00500   -3.07552   -6.94973
       O    -5.09944   -3.59068   -6.07797
      H1    -6.03652   -3.86538   -6.10316
       H    -5.58624    2.53001    5.42310
       O    -5.50349    1.88343    4.69061
      H1    -5.65275    2.49195    3.91428
       H    -0.20343   -3.17646   -1.93445
       O    -0.56510   -3.48434   -1.05219
      H1    -0.31177   -2.70111   -0.55694

