180
frame 10 | Written by MDAnalysis XYZWriter (release 2.4.3)
       H     4.41513    7.86333  -14.46549
       O     4.53308    7.44186  -13.57816
      H1     4.79579    8.23125  -13.11079
       H    11.11016   10.61827  -16.48666
       O    11.23907   11.64777  -16.59068
      H1    12.08769   11.82402  -16.25177
       H     9.14380   11.18360   -9.70374
       O     9.10370   11.84428  -10.37210
      H1     8.94172   11.35137  -11.15835
       H     7.11548    2.00142  -17.84504
       O     7.06666    2.37317  -18.75973
      H1     7.87512    1.98949  -19.17836
       H     2.84198   10.65533  -12.45976
       O     3.74989   10.30449  -12.54538
      H1     4.15280   10.41815  -11.66468
       H     7.59841   10.07280  -15.98074
       O     8.08450   10.31781  -15.16413
      H1     8.33860   11.26138  -15.31799
       H     2.87931   13.05838  -17.29295
       O     2.78860   13.54367  -18.14571
      H1     3.59916   13.44421  -18.72931
       H    12.62970    4.39194  -17.96453
       O    11.96092    4.89015  -17.44499
      H1    11.31291    4.20403  -17.32691
       H     3.95593    2.76502  -11.45325
       O     4.72582    2.63394  -12.07554
      H1     4.92870    3.52361  -12.27776
       H    12.19271    9.07544  -13.41286
       O    11.99846    8.43406  -14.07485
      H1    12.66099    7.67992  -13.98240
       H     5.49069   -0.74507  -14.34698
       O     5.56259   -0.63344  -13.37802
      H1     5.95794    0.24905  -13.20550
       H     8.23201    0.25711  -12.41574
       O     8.46243    0.57713  -13.26801
      H1     8.83884    1.45991  -13.17680
       H    13.99732    4.51968  -19.69672
       O    13.62772    3.80972  -19.13085
      H1    13.24312    3.26118  -19.77640
       H     9.43789   13.47102  -14.67176
       O     9.24947   12.71627  -15.26725
      H1    10.07679   12.55751  -15.70762
       H     8.38444    6.68849  -17.89748
       O     8.03728    7.48857  -17.50477
      H1     8.79747    8.04605  -17.44685
       H     6.48537   10.98959  -18.02069
       O     6.52011   10.06018  -17.75617
      H1     6.25156    9.46986  -18.51624
       H     6.14735   -0.05735  -16.36996
       O     5.20218   -0.22481  -16.13704
      H1     5.02429    0.60472  -15.64453
       H     9.48080    2.63196  -11.05955
       O    10.04951    2.67728  -11.80608
      H1    10.69605    3.37679  -11.58978
       H    15.16765    5.14794  -12.80200
       O    14.44228    5.77892  -12.71852
      H1    13.87231    5.62523  -13.49902
       H    11.18899    2.49806  -16.41456
       O    10.41200    2.69855  -17.01877
      H1     9.85483    3.21759  -16.43502
       H    12.37702    5.39553  -15.54719
       O    12.24095    5.29149  -14.58108
      H1    11.40595    4.84167  -14.48621
       H     3.93548    5.47270  -16.28520
       O     3.17646    5.76113  -15.77847
      H1     3.50270    6.31785  -15.07208
       H    14.03903   11.66046  -17.91860
       O    14.55765   12.42228  -17.59749
      H1    15.32671   12.42967  -18.15477
       H     3.83394    4.75707  -19.28738
       O     3.55830    4.03405  -18.67445
      H1     2.58261    4.04837  -18.82915
       H     9.43851    8.22846  -12.45454
       O     9.97318    7.48407  -12.77406
      H1    10.64233    7.97677  -13.25704
       H     6.46521    5.28887  -15.86477
       O     5.88868    5.76713  -16.48935
      H1     6.26660    6.65038  -16.49159
       H     1.37624    7.45843  -18.30454
       O     1.44854    6.57584  -17.87985
      H1     2.31676    6.49216  -17.52545
       H     7.94443    4.13479  -14.44035
       O     7.41024    3.47677  -14.98720
      H1     6.50296    3.57680  -14.60584
       H     3.89727   10.12731  -15.57435
       O     4.22602    9.26525  -15.85297
      H1     5.09494    9.64443  -16.19819
       H     1.68655    2.92961  -16.39116
       O     2.30260    3.07463  -15.65977
      H1     2.45522    4.02171  -15.76673
       H    14.94865    3.04187  -18.83194
       O    15.80372    2.62726  -18.49228
      H1    15.40177    1.76757  -18.30848
       H     6.90013    3.90601  -10.32302
       O     6.89400    4.83753  -10.53711
      H1     7.80151    5.07416  -10.73751
       H     4.41987    2.05185  -13.69535
       O     4.57717    1.92559  -14.62616
      H1     3.91594    2.52889  -15.05511
       H    11.13701    8.75469  -15.76542
       O    10.43820    9.10513  -16.37569
      H1     9.64750    9.33298  -15.86675
       H     9.07802    6.18322   -9.82751
       O     9.76631    5.85212  -10.41433
      H1     9.77794    6.55900  -11.12660
       H    14.92553    8.66561  -14.40077
       O    14.79536    7.83751  -14.82695
      H1    14.63862    8.15255  -15.72729
       H     7.45400    9.40664  -11.85226
       O     7.91459    8.64458  -11.49411
      H1     7.68043    8.62152  -10.55956
       H    10.00440   -0.11481  -17.88709
       O     9.67227    0.52148  -18.57070
      H1     9.83019    1.39327  -18.16304
       H    14.11536    8.83873  -18.31348
       O    14.38957    8.15990  -17.63236
      H1    15.26082    7.89255  -17.95631
       H     6.16555   13.24221  -18.61804
       O     6.37998   12.75991  -17.83356
      H1     6.99678   13.33373  -17.40342
       H     0.47480    5.44339  -16.47692
       O     0.00628    5.57667  -15.60909
      H1     0.38104    6.48939  -15.38486
       H     9.25434    5.49120  -13.96278
       O     9.46139    4.53382  -14.00642
      H1     9.65934    4.28850  -13.06947
       H    13.07918    1.93150  -14.99415
       O    12.55379    1.72152  -15.80706
      H1    12.17106    0.84691  -15.50013
       H     3.60929   12.24682  -14.92309
       O     3.57604   12.13964  -15.87994
      H1     4.33022   12.50943  -16.33258
       H     7.60320    1.47766  -15.70529
       O     7.57842    0.76111  -16.38666
      H1     8.55169    0.67115  -16.44129
       H    14.25835   -0.22916  -17.39098
       O    14.17765    0.64916  -17.69913
      H1    13.90342    1.09981  -16.90947
       H     5.46829    5.90281  -13.27284
       O     5.77967    5.00225  -13.15206
      H1     6.38351    5.09140  -12.43374
       H     1.88110    9.69988  -18.93485
       O     1.12662    9.18754  -18.69715
      H1     0.65364    9.73723  -17.97547
       H    12.44766    5.07127  -10.44054
       O    12.34156    4.38611  -11.11866
      H1    13.00026    4.75091  -11.73527
       H    13.52009   10.33862  -12.51805
       O    12.87911    9.94384  -12.00853
      H1    12.38816   10.65629  -11.66676
       H    12.43439    0.56910  -18.91762
       O    12.20649    0.95245  -19.76093
      H1    11.23495    0.79463  -19.71177
       H     6.52516    2.19401   -9.70786
       O     6.93332    2.04474  -10.58127
      H1     6.21518    2.12822  -11.20574
       H     8.14899   14.80937  -17.70835
       O     7.95626   14.75121  -16.79426
      H1     8.68276   14.18439  -16.49758
       H     6.82622    4.98244  -18.11486
       O     7.28511    5.03822  -18.94416
      H1     7.27791    4.06280  -19.20347
       H     7.98355   -0.14417  -19.19225
       O     7.45560   -0.80171  -19.70420
      H1     6.74624   -0.99946  -19.06292
       H    10.43462   13.70323  -18.90687
       O     9.95211   12.85769  -18.94775
      H1    10.68712   12.23083  -18.84498
       H     3.57511   -0.31628  -17.67344
       O     3.13667    0.11369  -18.38286
      H1     3.53222    0.93080  -18.60221
       H    11.99313   10.45910  -19.07274
       O    12.97140   10.51132  -18.91915
      H1    13.22152   10.76442  -19.80620
       H     5.57186   10.78756  -13.14205
       O     6.51601   10.93524  -12.91006
      H1     6.94450   10.78291  -13.79638
       H    13.74755   11.89474  -14.35596
       O    13.07506   12.56551  -14.22515
      H1    12.72305   12.37908  -13.35180

