180
frame 10 | Written by MDAnalysis XYZWriter (release 2.4.3)
       H   -13.06010    8.55925  -11.21102
       O   -13.50044    8.32163  -10.35896
      H1   -12.62765    8.17169   -9.90867
       H   -19.21602   14.33470    2.41083
       O   -19.33408   13.55135    1.79317
      H1   -18.35212   13.32440    1.50851
       H   -18.59910   11.80307   -6.62543
       O   -17.72339   12.23966   -6.64085
      H1   -17.91479   13.18545   -6.76152
       H   -17.08866   15.31005   -5.31439
       O   -17.08546   14.52776   -4.75770
      H1   -17.78030   14.61487   -4.04921
       H   -17.40941   15.90563   -9.71510
       O   -18.35600   15.68442   -9.89456
      H1   -18.65407   16.21629  -10.68300
       H   -15.20489   14.99366  -12.54330
       O   -14.65391   15.59826  -11.92399
      H1   -14.52105   16.29311  -12.59545
       H   -13.53616   20.10958   -4.19333
       O   -13.38990   19.13949   -4.19984
      H1   -14.13514   18.86475   -4.70983
       H   -13.60980   13.27659  -10.69300
       O   -12.74044   12.89665  -10.86586
      H1   -12.55635   13.14846  -11.78643
       H   -15.12881   18.77075  -10.21111
       O   -14.43100   18.32701   -9.71263
      H1   -14.74626   17.48963   -9.35451
       H   -12.56520   18.43111  -10.27691
       O   -11.69113   18.41435  -10.74901
      H1   -11.75630   19.32507  -11.17976
       H   -12.57882    7.36197   -5.69249
       O   -12.11916    6.56922   -6.09083
      H1   -12.70475    6.37965   -6.87167
       H   -14.96860   12.18314   -5.59828
       O   -15.03382   12.93539   -4.97244
      H1   -15.98122   13.14615   -4.96248
       H   -14.42540   15.06054   -5.09519
       O   -14.62210   15.97751   -5.16180
      H1   -15.45055   15.94080   -4.76632
       H   -19.32214   19.57159   -1.74567
       O   -19.63183   19.18150   -2.60427
      H1   -19.59637   18.19034   -2.27091
       H   -18.06456   16.64526   -7.19720
       O   -17.52882   16.99268   -6.42508
      H1   -18.06150   17.66716   -5.90357
       H   -14.80338    6.10149   -7.93511
       O   -14.97414    7.04432   -7.65183
      H1   -15.79532    7.23413   -8.05261
       H   -18.84760   16.90938   -0.50704
       O   -19.00977   17.82818   -0.30269
      H1   -19.76102   17.71078    0.29520
       H   -11.83332   11.68893   -1.68285
       O   -11.63682   11.54527   -0.74643
      H1   -12.46611   11.15220   -0.50807
       H   -11.06786   10.54197   -6.50921
       O   -11.92432   10.75386   -6.06342
      H1   -12.57166   10.55351   -6.78337
       H   -14.29824   10.29582   -1.61972
       O   -14.27999   10.25853   -0.65880
      H1   -13.74292    9.49866   -0.52293
       H   -15.46000   10.99687  -14.96404
       O   -16.12026   11.71061  -14.99780
      H1   -16.81121   11.40533  -14.33476
       H   -17.96406    7.11589   -8.69430
       O   -18.90022    7.03201   -8.51848
      H1   -18.99111    6.47050   -7.77010
       H   -16.34465    5.09928   -5.53294
       O   -16.64955    5.93346   -5.13068
      H1   -15.80420    6.37012   -5.04733
       H    -8.95277   14.70270   -7.07312
       O    -8.92796   13.71617   -6.73320
      H1    -9.73887   13.68697   -6.14968
       H   -17.32744   18.02904  -13.41932
       O   -16.82425   18.37472  -14.12453
      H1   -15.87458   18.27471  -13.83719
       H   -16.69596    9.61125   -4.44133
       O   -15.87987   10.03079   -4.66617
      H1   -16.01694   10.91666   -4.27045
       H   -12.03979   11.66493  -10.11649
       O   -11.41026   11.14926   -9.59947
      H1   -10.57663   11.61404   -9.80682
       H   -16.89008   11.75308   -1.92142
       O   -17.43117   11.39221   -2.62534
      H1   -17.45448   10.48236   -2.34196
       H   -17.99621    7.71739  -12.30949
       O   -18.12014    8.69990  -12.31956
      H1   -17.50088    8.86625  -11.59968
       H   -13.05238   15.99663   -4.32502
       O   -12.43525   15.44893   -3.79126
      H1   -11.98395   16.19219   -3.30730
       H   -15.74236   15.64902   -0.69212
       O   -16.13252   15.98252    0.13572
      H1   -15.37569   16.55453    0.45958
       H   -12.37391   17.85513   -6.98719
       O   -11.74268   18.44036   -6.50427
      H1   -12.31413   18.63176   -5.75066
       H   -18.74455   15.62274  -14.82111
       O   -18.09484   15.28794  -14.20932
      H1   -18.48154   14.48554  -13.83650
       H   -11.97045   14.91143  -13.22124
       O   -12.71246   14.22706  -13.19958
      H1   -13.41245   14.72936  -12.72977
       H   -10.69021   15.61822  -10.46165
       O   -10.04283   16.36209  -10.43822
      H1   -10.53354   17.21984  -10.57500
       H   -16.40261   14.57201    0.90034
       O   -16.53995   13.60140    1.16677
      H1   -15.63550   13.38253    1.47852
       H   -13.76299   15.56554   -0.84959
       O   -13.91420   14.80807   -1.45309
      H1   -13.38513   15.17392   -2.21910
       H   -18.37935   16.51376  -12.76579
       O   -18.50227   17.33713  -12.21939
      H1   -19.35214   17.67003  -12.54438
       H   -17.95925   10.65370    0.69481
       O   -17.62333   10.83388    1.60019
      H1   -17.27272   11.74390    1.53527
       H   -18.98035   11.53711  -14.23805
       O   -18.37471   11.16712  -13.57879
      H1   -18.81347   10.28727  -13.43364
       H   -11.09874    9.38322   -9.23708
       O   -11.10352    8.55042   -8.75343
      H1   -10.47978    7.92277   -9.06784
       H   -15.88832    9.36990   -0.74154
       O   -16.84091    9.15197   -0.87076
      H1   -16.83186    8.17435   -0.75427
       H   -15.70708   12.59584   -8.99987
       O   -15.13895   13.25604   -9.34630
      H1   -14.61953   13.45079   -8.53894
       H   -13.55787   12.13472   -3.99531
       O   -12.86049   11.61147   -3.53121
      H1   -12.66093   10.98141   -4.17190
       H   -12.39208   13.49780   -6.88805
       O   -12.94666   13.72540   -7.66282
      H1   -12.29455   13.33473   -8.27668
       H   -15.52202   15.41709   -9.27364
       O   -15.88004   16.16370   -8.81155
      H1   -15.87444   15.88585   -7.90587
       H   -17.59281   11.27080   -9.32902
       O   -16.78988   11.28585   -8.83318
      H1   -17.09806   11.65606   -7.97767
       H   -15.41054   12.29277  -11.04470
       O   -15.85142   12.08633  -11.87236
      H1   -15.48843   12.81119  -12.43162
       H   -16.54459   14.44529  -14.34520
       O   -15.62558   14.18547  -14.20377
      H1   -15.59478   13.30785  -14.61593
       H   -12.65269    9.43506   -5.17385
       O   -13.00755    8.69915   -4.60687
      H1   -13.93292    8.90769   -4.58219
       H   -13.24939    9.90709   -8.65685
       O   -13.78505   10.05176   -7.87844
      H1   -14.24523    9.16492   -7.87154
       H   -12.70486   15.51944   -7.81122
       O   -12.96546   16.45668   -7.83896
      H1   -13.55881   16.33447   -7.04350
       H   -17.37742   18.10382   -7.82019
       O   -17.98818   18.60136   -8.40133
      H1   -17.45838   18.80850   -9.16686
       H   -15.41501   10.40599  -12.79200
       O   -15.56888    9.54646  -13.28494
      H1   -16.53551    9.46476  -13.26223
       H   -17.26927   18.25354   -2.19433
       O   -16.35566   17.94017   -2.15271
      H1   -16.35374   17.72587   -1.16079
       H   -18.49000   12.80424  -12.26531
       O   -18.93202   13.58513  -11.85058
      H1   -18.31479   13.81794  -11.19315
       H   -18.89450   13.69099   -2.19808
       O   -18.30982   14.41751   -2.40208
      H1   -17.39277   14.02015   -2.42846
       H   -15.72701    9.09076   -9.78514
       O   -16.65581    8.72635   -9.86775
      H1   -17.12608    9.40341   -9.25905
       H   -19.93056    6.26097   -5.67277
       O   -19.41776    5.58362   -6.10793
      H1   -18.57466    5.73765   -5.84783
       H   -11.90420   14.14344   -4.65577
       O   -11.52554   13.57211   -5.34828
      H1   -11.77993   12.69636   -5.08063

