180
frame 3 | Written by MDAnalysis XYZWriter (release 2.4.3)
       H    -0.96369   14.73283   -2.05693
       O    -1.55005   14.49270   -1.32840
      H1    -1.60671   15.34944   -0.90045
       H    -4.73276   10.24321   -5.34641
       O    -4.71989    9.26184   -5.42173
      H1    -5.32623    9.10583   -6.15049
       H    -3.32219   12.39539   -7.97559
       O    -2.74027   11.82465   -8.39500
      H1    -1.90670   12.18758   -8.01377
       H     4.73364    8.43084   -3.43726
       O     4.47421    7.72798   -4.07163
      H1     3.80459    8.17914   -4.67037
       H    -5.14048   16.69408   -5.07015
       O    -4.27576   16.43072   -4.65288
      H1    -4.58152   15.91648   -3.84201
       H    -5.61150    7.56961   -1.99046
       O    -6.42535    7.62443   -1.42948
      H1    -5.91634    8.03119   -0.63751
       H    -1.63414    3.83927   -3.94937
       O    -0.76997    3.97998   -4.33309
      H1    -0.50241    4.81975   -3.89220
       H    -3.20362    8.68066  -11.90001
       O    -2.50860    9.32917  -11.90096
      H1    -2.61025    9.81751  -11.02551
       H    -0.98325   12.14504   -1.16332
       O    -0.23754   11.57326   -1.43441
      H1    -0.26818   11.55906   -2.36567
       H     0.45623    8.37382   -7.98914
       O     0.13360    8.13193   -7.08672
      H1     0.04698    8.98691   -6.67926
       H    -3.98856    4.07086   -3.41147
       O    -3.38999    4.84235   -3.43025
      H1    -3.25983    5.02119   -4.38624
       H    -6.67543   12.59515   -7.27880
       O    -6.99489   13.47969   -7.35551
      H1    -6.82247   13.73788   -6.42498
       H    -1.15594    5.91658   -2.20934
       O    -0.31496    6.23584   -2.65832
      H1     0.25536    5.76694   -2.04118
       H     2.04160    8.69413   -9.13031
       O     1.21712    8.69751   -9.61345
      H1     1.40137    7.98122  -10.24214
       H     1.03697   10.84444    1.39846
       O     1.49859   10.34842    2.13882
      H1     1.18671    9.43755    2.07555
       H     3.87602   12.47023   -2.44363
       O     3.45869   13.21716   -2.88310
      H1     2.86317   12.69764   -3.47991
       H    -3.05690   13.95802   -0.98053
       O    -3.91749   13.58134   -0.65983
      H1    -3.72167   12.90914    0.06394
       H    -6.02749   11.82491   -9.34599
       O    -5.61646   12.32856  -10.04025
      H1    -6.15238   12.08881  -10.80494
       H    -1.99224   15.99995   -5.60532
       O    -1.12821   16.38755   -5.29990
      H1    -1.07386   17.09364   -5.96112
       H    -6.09510   14.95421   -2.47346
       O    -5.45499   14.43547   -2.95555
      H1    -5.08432   13.88470   -2.25291
       H     1.24739   14.73676   -6.91854
       O     0.50092   15.33136   -7.24906
      H1     0.00462   15.53591   -6.44798
       H    -0.45964    9.15703   -0.79806
       O    -1.25124    8.55440   -0.74147
      H1    -1.17866    8.05392   -1.55132
       H     2.24587   13.52478   -1.72246
       O     1.58222   13.94304   -1.15822
      H1     1.22473   13.26437   -0.56921
       H     0.25588   10.37178  -12.12182
       O     0.74179   10.85586  -11.43487
      H1     0.93941   10.14373  -10.82330
       H    -1.73297    5.41900    0.47943
       O    -2.33211    5.29436   -0.31018
      H1    -2.89476    6.05664   -0.49083
       H     0.51276   13.92103   -2.57750
       O     0.15317   14.12339   -3.47418
      H1    -0.51022   13.37585   -3.60093
       H     0.02655   12.58086   -8.21471
       O    -0.45430   12.63759   -7.35044
      H1    -0.54481   13.66337   -7.43563
       H     2.58317   14.55045   -4.91311
       O     2.04919   13.75826   -5.24089
      H1     1.36130   13.83298   -4.53192
       H    -2.37013   13.12140   -4.45940
       O    -1.89380   12.53423   -3.85620
      H1    -2.59348   12.14818   -3.37187
       H    -3.77522   16.60822   -8.18209
       O    -3.44905   15.64620   -8.29531
      H1    -4.24123   15.26166   -8.72655
       H     4.41626   11.04335   -6.50885
       O     5.29981   10.59382   -6.39725
      H1     5.05338    9.77812   -5.93830
       H    -3.09271   14.40324   -6.81064
       O    -2.97996   14.36437   -5.83920
      H1    -3.59048   15.06582   -5.59123
       H    -0.78256    8.20334    0.91069
       O    -0.25962    8.03505    1.71250
      H1    -0.62794    7.19503    2.06320
       H     4.96721   13.10494   -4.15928
       O     5.78605   12.60569   -4.31132
      H1     5.61959   11.96360   -5.01519
       H    -4.60461    8.24210   -4.03102
       O    -4.31344    7.77510   -3.23140
      H1    -4.32856    6.81944   -3.48788
       H     4.31226    7.97601   -8.30373
       O     3.57266    8.62664   -8.35901
      H1     3.88164    9.39384   -8.86230
       H    -1.01821   18.49136   -2.99798
       O    -1.03218   17.57951   -2.62524
      H1    -1.11354   17.03447   -3.41487
       H     0.05869   12.43340  -10.70213
       O    -0.14889   13.27559  -10.15348
      H1    -1.05808   13.45138  -10.41340
       H    -3.13160    9.63218   -2.65974
       O    -3.01942   10.52694   -2.37301
      H1    -2.34856   10.40180   -1.70205
       H    -3.42061    9.73652   -8.64508
       O    -4.03806    9.03200   -8.59579
      H1    -4.41831    8.96800   -9.51556
       H    -5.72030   11.34557   -1.08676
       O    -5.65452   11.23245   -2.03135
      H1    -4.65979   10.98863   -2.08578
       H    -0.20282    3.52766   -7.86632
       O    -0.80552    3.25397   -7.14195
      H1    -0.42897    3.78020   -6.41155
       H     6.08406    9.16447   -2.07494
       O     5.15276    9.44899   -2.04155
      H1     5.18653   10.30074   -1.55438
       H     1.29805    6.19507   -4.48652
       O     1.83143    6.40435   -5.29530
      H1     1.06169    6.42150   -5.89723
       H    -5.46757   11.86293   -3.93561
       O    -5.21293   11.89137   -4.86272
      H1    -4.42327   12.44464   -4.80738
       H    -3.90989   12.50768  -11.05384
       O    -3.00619   12.06744  -11.00367
      H1    -2.96011   11.96646  -10.03126
       H    -1.56327    7.47184   -7.40402
       O    -2.30671    6.93209   -7.72092
      H1    -2.87529    7.64939   -8.09652
       H     3.75370    8.28734   -0.97954
       O     3.02513    7.65645   -0.82605
      H1     3.64964    6.86272   -1.02966
       H    -2.41933   12.35357    1.85699
       O    -2.05136   12.46223    0.95015
      H1    -1.61829   13.33222    0.95641
       H    -2.09434    6.70407  -10.86660
       O    -1.76479    5.97239  -10.28346
      H1    -1.84442    6.35311   -9.35463
       H    -3.08553    4.06079   -6.73234
       O    -3.58460    4.81205   -6.37860
      H1    -3.21157    5.56751   -6.81550
       H     1.26777   16.04530   -3.54043
       O     1.97090   16.62779   -3.21483
      H1     1.82613   17.42823   -3.77322
       H     0.82361    7.53819   -2.74359
       O     1.31867    8.34978   -2.79959
      H1     2.09321    8.14287   -2.21329
       H     3.57849   13.10217   -7.47590
       O     4.30148   13.63773   -7.92612
      H1     4.29528   13.27981   -8.82846
       H    -5.60265   10.25959   -8.05085
       O    -6.36803   10.83518   -7.90736
      H1    -6.98573   10.24989   -7.50263
       H     0.86477   11.14979   -4.30553
       O     1.54612   11.22937   -3.61516
      H1     1.82972   10.27596   -3.52307
       H     2.40171   12.22142   -5.68622
       O     2.75531   11.58649   -6.35370
      H1     2.41837   10.81027   -5.98633
       H     2.78511    8.36277   -6.75183
       O     2.72259    8.83731   -5.89856
      H1     2.06547    8.23088   -5.48230
       H    -0.45362   11.33001   -6.10423
       O    -0.29674   10.53136   -5.52826
      H1    -1.05375   10.51383   -4.95466
       H     2.89754    5.08792   -6.44225
       O     3.13497    4.57191   -7.21409
      H1     2.27201    4.55521   -7.65177

