180
frame 49 | Written by MDAnalysis XYZWriter (release 2.4.3)
       H    -0.51806  -13.00301   -9.39104
       O    -0.79965  -12.16920   -9.91345
      H1    -0.78532  -12.47047  -10.82182
       H    -8.25231  -11.78017  -12.82395
       O    -7.27874  -11.74888  -12.53602
      H1    -7.16130  -10.77240  -12.46279
       H   -10.74561  -18.96681  -16.78997
       O   -11.64328  -18.76269  -17.12246
      H1   -11.43759  -19.01978  -18.04275
       H     4.20150  -12.04007  -18.40074
       O     3.72709  -12.89406  -18.50883
      H1     3.59592  -12.90395  -19.49700
       H     2.71835  -15.01402  -14.87111
       O     3.61570  -15.31576  -15.16865
      H1     3.78819  -16.00135  -14.51718
       H    -2.39852  -14.72414  -10.17921
       O    -3.15314  -14.48282  -10.73615
      H1    -3.01362  -14.96323  -11.56683
       H     4.95398  -17.93628  -13.75410
       O     4.09440  -17.55107  -13.62679
      H1     4.11600  -17.27665  -12.71926
       H    -4.40767  -17.88137  -16.31919
       O    -4.07557  -17.14238  -15.83291
      H1    -4.92360  -16.66087  -15.60744
       H     1.13043  -13.38301  -16.60262
       O     1.16077  -13.72838  -15.73925
      H1     1.46076  -12.91866  -15.28364
       H    -7.67220   -9.95960  -19.86846
       O    -8.44502  -10.51548  -19.80922
      H1    -8.24063  -10.93505  -18.91358
       H     7.23072  -19.06650  -13.43652
       O     6.72586  -18.55458  -14.09943
      H1     7.12084  -18.81146  -14.97271
       H    -1.68841  -15.16798  -15.07597
       O    -1.53208  -16.13492  -15.22627
      H1    -2.41158  -16.46689  -15.31721
       H     0.61549  -16.54453  -14.32351
       O     0.97626  -15.75882  -13.85338
      H1     0.71247  -15.07467  -14.51113
       H     3.75504  -19.35745  -16.53625
       O     4.49327  -18.73348  -16.77015
      H1     4.16055  -17.82358  -16.43810
       H    -8.53721  -18.49785  -10.24006
       O    -7.62197  -18.63309  -10.53493
      H1    -7.80573  -18.33639  -11.44082
       H     0.94957   -8.94717  -17.92082
       O     0.35093   -9.70322  -18.08168
      H1    -0.08737   -9.65512  -17.20567
       H    -3.57063  -10.92818  -16.38766
       O    -2.78325  -11.02647  -16.90838
      H1    -2.22984  -11.63575  -16.45960
       H    -9.80169  -14.16581  -16.63629
       O   -10.49316  -13.46498  -16.64937
      H1   -11.22906  -14.06571  -16.56831
       H    -0.69584  -18.78007  -10.83721
       O    -1.29563  -18.70954  -11.60456
      H1    -1.77053  -19.58001  -11.47003
       H   -11.71526  -16.60454  -16.92193
       O   -12.23382  -15.72935  -16.86804
      H1   -12.30561  -15.80933  -15.90384
       H    -9.75847  -11.25540  -14.85217
       O    -9.17264  -12.03148  -14.70357
      H1    -9.83600  -12.68104  -15.05016
       H    -3.10760  -15.35204   -8.43918
       O    -3.64229  -15.81523   -7.79890
      H1    -4.52924  -15.62351   -8.10642
       H     2.91600  -13.89734   -9.87365
       O     3.00026  -13.89960  -10.82612
      H1     3.09596  -14.85909  -10.99786
       H    -4.26344  -18.78760  -10.22850
       O    -4.17486  -17.85833  -10.38714
      H1    -3.27429  -17.82632  -10.76726
       H    -0.43136  -15.46308   -9.79697
       O    -1.06736  -15.29640   -9.08913
      H1    -0.83624  -15.97054   -8.45895
       H    -3.34784  -19.61646  -18.08887
       O    -3.00009  -19.87226  -18.98911
      H1    -2.82386  -18.92287  -19.21901
       H   -10.35579  -13.65607  -18.57493
       O   -10.72140  -13.79965  -19.46089
      H1    -9.98921  -14.13353  -19.95854
       H    -6.48681  -13.39484  -11.85159
       O    -5.83058  -14.14309  -11.76877
      H1    -5.05028  -13.80997  -11.35835
       H    -1.94586  -14.44447  -17.94369
       O    -1.18759  -15.03096  -17.75655
      H1    -1.40578  -15.34412  -16.81728
       H     1.82576  -18.78552  -18.91748
       O     1.00964  -18.39876  -18.56727
      H1     0.82032  -17.74562  -19.28199
       H   -11.43960  -19.58162  -10.55618
       O   -11.38996  -18.93174  -11.25624
      H1   -11.79066  -19.45352  -11.96091
       H     5.24797  -14.06332  -17.02238
       O     6.17273  -14.34894  -16.78636
      H1     6.03234  -14.88073  -16.03466
       H     2.81270  -15.85655  -16.69141
       O     2.58029  -16.21093  -17.61911
      H1     1.99978  -16.97079  -17.47190
       H    -1.47851  -12.60848  -14.56616
       O    -1.91525  -13.07260  -15.31546
      H1    -1.18051  -13.20286  -15.89814
       H    -0.64087  -10.67385  -13.85552
       O    -0.71701  -11.47068  -13.34365
      H1    -1.12046  -10.97919  -12.54880
       H    -5.53089  -13.56551  -13.69337
       O    -5.88009  -13.39265  -14.54631
      H1    -6.42176  -12.55958  -14.38163
       H    -0.52461  -17.89096  -14.85256
       O     0.11535  -18.39422  -14.35882
      H1    -0.41048  -18.61320  -13.58910
       H    -6.94284  -10.73585  -16.95011
       O    -7.47931  -11.53805  -17.06796
      H1    -7.93217  -11.63082  -16.22052
       H     5.71152  -15.80143  -18.29353
       O     5.16187  -16.28376  -18.90784
      H1     4.29836  -16.37566  -18.42665
       H    -6.04940  -16.06056  -12.40144
       O    -5.95301  -16.99250  -12.62831
      H1    -5.78302  -17.27579  -11.70579
       H     1.57269  -19.69189  -13.53472
       O     2.52505  -19.68622  -13.23784
      H1     2.80390  -18.85909  -13.64111
       H     0.87644  -11.53693  -18.14587
       O     1.14660  -12.40348  -18.33545
      H1     2.14374  -12.44649  -18.35907
       H     1.20139  -11.51898  -13.69221
       O     1.85951  -11.64081  -14.40753
      H1     2.68771  -11.75453  -13.90318
       H   -13.96623  -16.14999  -14.21627
       O   -13.02570  -16.41085  -14.18534
      H1   -13.11731  -17.35295  -14.45119
       H    -3.40948  -13.43353  -18.99284
       O    -3.33123  -13.35574  -17.97880
      H1    -2.83814  -12.50372  -17.86005
       H     6.60838  -18.43171  -17.05805
       O     7.53282  -18.74520  -17.02279
      H1     7.33532  -19.66814  -16.92776
       H    -8.79625  -17.72536  -13.16347
       O    -8.14457  -18.41745  -13.35287
      H1    -7.36483  -17.87861  -13.46026
       H     0.58104  -17.09881   -7.09387
       O     0.01826  -17.81402   -7.42803
      H1     0.57246  -18.05236   -8.24023
       H    -4.50762   -8.38526  -15.22272
       O    -4.70979   -9.36993  -15.05919
      H1    -4.08624   -9.56459  -14.30102
       H    -5.85154  -15.29148  -10.50712
       O    -5.87092  -15.69048   -9.61462
      H1    -5.56010  -16.63175   -9.69516
       H    -6.12662  -15.04338  -15.37570
       O    -6.31713  -15.59633  -16.13782
      H1    -6.33747  -14.99621  -16.87446
       H    -6.75319  -12.95398  -17.79911
       O    -6.33990  -13.72002  -18.24718
      H1    -5.44940  -13.40195  -18.22619
       H    -2.24016  -16.72313  -18.54671
       O    -2.46757  -17.19975  -19.36548
      H1    -1.70814  -17.55591  -19.82870
       H    -8.96403  -18.59376  -14.88232
       O    -9.10116  -18.83659  -15.80471
      H1    -8.94001  -17.94737  -16.22091
       H     0.83955  -15.04963  -12.18846
       O     0.57487  -14.86453  -11.23337
      H1     1.35581  -14.24792  -11.03549
       H    -1.62917  -18.57487   -7.18226
       O    -2.44316  -19.14173   -6.98333
      H1    -2.93002  -19.10324   -7.79352
       H    -8.03437  -15.90830  -16.99336
       O    -8.95614  -16.19578  -17.25688
      H1    -8.89672  -16.45913  -18.19157
       H    -1.36104   -9.41496  -15.21568
       O    -0.53027   -9.77882  -15.50957
      H1     0.11191   -9.18479  -15.08554
       H   -10.35305  -15.92258  -12.56672
       O   -10.14945  -16.34445  -13.39379
      H1   -11.02849  -16.42117  -13.81577
       H   -14.01171  -19.17320  -15.15942
       O   -13.10796  -19.14322  -14.80710
      H1   -12.66854  -19.08353  -15.62638

