180
frame 4 | Written by MDAnalysis XYZWriter (release 2.4.3)
       H     4.60705   11.10538   15.02188
       O     5.42080   11.37381   14.48342
      H1     5.91043   11.96084   15.05825
       H     3.78907    8.02389   14.84195
       O     3.01089    8.58232   15.11565
      H1     2.34938    8.28183   14.44186
       H     1.06467   15.28440   16.54178
       O     1.24700   15.18159   17.51330
      H1     0.37851   15.06447   17.89697
       H    -3.99850   17.39894   18.89333
       O    -4.87438   17.19783   19.30921
      H1    -4.74924   17.80435   20.02166
       H    -8.08323   16.08029   18.00240
       O    -8.85776   16.47007   18.43129
      H1    -9.50643   16.41328   17.77044
       H     3.52345   17.74519   14.17636
       O     4.24000   17.71906   14.79362
      H1     4.46503   18.64874   15.01775
       H    -0.82250   12.01137   11.87972
       O    -0.53778   11.58336   11.08911
      H1     0.18530   11.06649   11.38177
       H    -8.36157   15.93049   14.96339
       O    -8.98158   16.64993   14.78037
      H1    -9.38640   16.26336   13.93436
       H    -3.30121   11.82926   12.32717
       O    -2.51784   12.20258   12.80738
      H1    -2.42650   13.17954   12.64246
       H     2.35096   11.09093   14.13008
       O     2.34156   11.13076   13.18069
      H1     2.33792   10.20131   12.90548
       H     4.43769   10.65277   17.27413
       O     5.01492   10.38883   18.03429
      H1     5.67586    9.89940   17.48996
       H     3.88579   11.92723   12.60599
       O     4.37039   12.38992   11.91472
      H1     4.18152   11.74436   11.22272
       H    -4.05933   10.19161   18.27421
       O    -4.22797    9.31956   18.63449
      H1    -4.54634    8.76719   17.93653
       H    -3.01597   16.70243   10.08929
       O    -3.49194   17.09300   10.83102
      H1    -2.78077   17.49056   11.32688
       H    -1.21717   11.60134    8.07871
       O    -2.08277   11.62308    8.62421
      H1    -1.71031   11.47375    9.50550
       H    -0.49827   19.49137   19.66917
       O    -0.58787   18.55798   19.48132
      H1     0.24029   18.20538   19.31689
       H    -6.85500   16.01195   11.90643
       O    -6.66420   15.13051   12.28574
      H1    -5.81503   15.24784   12.75796
       H    -0.34091   15.58191   15.16373
       O     0.62446   15.84224   15.01094
      H1     0.97915   15.12259   14.46689
       H    -4.42612   12.24952   17.93519
       O    -3.55324   11.81061   17.97607
      H1    -3.32987   11.95724   17.03598
       H    -6.47596   10.62179   15.89242
       O    -6.39205    9.65877   16.09329
      H1    -6.78281    9.18304   15.32967
       H     1.49142   16.88001   13.93110
       O     1.97449   17.44851   13.34432
      H1     1.91974   16.99149   12.45853
       H    -0.33431   11.84587   18.83777
       O    -0.71039   11.51409   19.67027
      H1    -1.60330   11.30465   19.32064
       H     0.51552    6.93774   16.38354
       O     0.22890    7.48029   15.61058
      H1    -0.61583    6.97680   15.50813
       H    -5.99604   16.58952   18.07251
       O    -6.33019   16.07076   17.28431
      H1    -5.77024   16.52010   16.65450
       H    -7.67634   14.13350   13.88997
       O    -7.89368   14.13467   14.83881
      H1    -8.78533   13.78475   14.79165
       H     0.50569   10.82191   16.32016
       O     0.13516   10.44252   15.51095
      H1     0.14215    9.47783   15.57811
       H    -2.33778   14.61346   15.57171
       O    -1.76155   14.68704   16.34536
      H1    -1.84967   13.71177   16.60352
       H    -0.66792   18.28749   11.96056
       O    -1.35558   17.67444   12.26265
      H1    -1.50440   17.97893   13.16128
       H     0.99188    8.44876   17.46971
       O     1.87407    8.90602   17.62054
      H1     2.26360    8.80397   16.71206
       H    -4.60033   14.01719   14.45351
       O    -4.44657   14.83842   14.00013
      H1    -4.52485   15.42931   14.77155
       H     1.23724   14.78019   11.39439
       O     0.91017   15.60451   11.63889
      H1    -0.03767   15.40410   11.77855
       H     1.73315   16.47474   18.64931
       O     1.92538   17.20146   19.23121
      H1     2.47629   17.78794   18.64103
       H    -4.55813   13.69537   10.78170
       O    -5.15338   13.15924   11.30209
      H1    -5.57374   13.90035   11.77768
       H    -5.45072   12.87591   15.73253
       O    -6.02659   12.32392   15.23426
      H1    -6.80888   12.96376   15.13865
       H    -2.41706   13.18380    9.30624
       O    -2.47580   14.10486    9.69543
      H1    -1.83397   14.52562    9.08604
       H    -4.22776   17.59854    7.41215
       O    -3.25935   17.53613    7.34361
      H1    -2.93008   18.16779    8.00841
       H     7.15727   16.91593   12.96208
       O     7.00283   17.23707   13.90384
      H1     6.05453   17.35592   14.06361
       H     4.84100   14.71198   19.68841
       O     4.84381   13.79117   19.31438
      H1     5.34079   14.08505   18.52081
       H     2.33034   12.56556   11.36008
       O     1.89115   12.96441   10.62956
      H1     1.02101   12.60545   10.76949
       H    -5.06868   14.77732   17.08820
       O    -4.51136   14.06435   16.75146
      H1    -3.76238   14.08890   17.34212
       H     1.40283   18.13996    9.09812
       O     0.62120   17.86820    9.70436
      H1     0.99987   17.06553   10.11043
       H     5.27522   14.95261   16.34849
       O     5.53104   14.05081   16.46800
      H1     6.46619   14.05872   16.55355
       H    -2.02967   14.62780   11.22535
       O    -1.58167   14.82167   12.05714
      H1    -1.84945   15.79990   12.02905
       H     3.22992   18.21082   16.64865
       O     3.11740   18.87511   17.38455
      H1     2.62005   19.54780   16.85108
       H    -1.80828    8.51587   16.76626
       O    -1.50280    8.56349   17.69172
      H1    -2.29976    8.85079   18.13475
       H    -0.33248   16.17154    8.40972
       O    -0.77609   15.35474    8.25519
      H1    -0.24221   14.99370    7.49486
       H     6.95034   12.91690   11.68925
       O     6.95243   13.01894   10.68060
      H1     6.07573   13.50903   10.68647
       H     4.17496   14.30170    8.34142
       O     4.20007   14.70456    9.25437
      H1     3.43701   14.22272    9.60999
       H    -6.95098   19.00362   13.86012
       O    -7.52409   18.40113   13.37488
      H1    -7.97094   17.88812   14.05987
       H     2.35289   11.62887   16.46649
       O     3.26475   11.55336   16.13411
      H1     3.49675   12.44718   16.33988
       H     1.27363   12.29197   18.35632
       O     0.75801   12.48995   17.53911
      H1     1.04541   13.45538   17.55010
       H    -1.99723   19.41756   15.33185
       O    -2.49416   18.90829   14.66843
      H1    -2.67155   19.61117   14.03702
       H    -2.38515   11.50624   14.57427
       O    -2.45911   11.49971   15.55719
      H1    -1.58723   10.97292   15.72666
       H    -3.44640    9.77482   15.41141
       O    -3.78408    8.88730   15.40421
      H1    -4.72831    9.17582   15.65105
       H     5.02409   16.27617   10.19260
       O     5.61766   16.95568   10.61103
      H1     6.43511   16.47359   10.48017
       H     5.24560   13.95995   12.63186
       O     6.12850   14.50199   12.75996
      H1     5.81691   15.35896   13.13647
       H    -6.63383   18.53938   10.83976
       O    -5.76590   18.96053   10.69021
      H1    -5.08230   18.24079   10.64837
       H     1.83249    8.95172   10.43096
       O     0.86944    9.21143   10.50511
      H1     0.67752    9.16795    9.60790
       H    -1.85146   17.45242   18.12024
       O    -2.56170   16.99371   17.66465
      H1    -2.06689   16.20806   17.29641
       H    -3.87243   17.26974   16.42025
       O    -4.54508   17.18007   15.70889
      H1    -4.45312   18.11375   15.33793

