180
frame 0 | Written by MDAnalysis XYZWriter (release 2.4.3)
       H   -13.04494  -18.16725   -5.87108
       O   -13.61393  -17.33741   -5.74030
      H1   -13.21910  -17.16338   -4.89035
       H   -14.56457  -12.45761   -8.81447
       O   -14.80896  -12.74914   -7.88156
      H1   -14.63056  -13.67203   -7.91741
       H   -11.78536  -15.32789  -13.08879
       O   -11.62585  -15.44152  -14.09642
      H1   -12.18418  -16.22978  -14.22614
       H   -11.71998   -9.99617  -11.76858
       O   -12.36427  -10.07772  -12.48794
      H1   -13.10896  -10.46650  -12.01709
       H   -19.66657  -12.91352   -1.03753
       O   -18.91574  -13.44661   -1.26770
      H1   -19.17490  -13.76810   -2.18088
       H   -12.73065  -12.44941   -9.13823
       O   -12.67803  -13.09493   -9.87179
      H1   -12.08657  -13.74059   -9.53131
       H   -11.14443  -13.68551   -2.73861
       O   -11.38967  -13.80439   -3.66772
      H1   -10.75253  -14.55751   -3.86885
       H   -18.90412  -11.55956   -7.02608
       O   -18.56248  -11.82227   -6.10128
      H1   -17.98780  -12.58452   -6.39345
       H   -16.32152   -6.91766   -8.50456
       O   -16.62180   -7.37900   -9.31427
      H1   -16.24326   -8.23951   -9.04867
       H   -10.81346  -17.87300  -10.10117
       O   -10.11215  -17.39374  -10.55016
      H1   -10.49617  -16.52305  -10.50876
       H   -16.20341  -11.45389   -0.74805
       O   -16.48243  -12.29991   -0.42083
      H1   -17.25901  -12.46732   -0.99608
       H   -18.61659   -9.26934   -4.41073
       O   -19.35711   -8.74524   -4.04506
      H1   -20.00960   -8.78500   -4.78400
       H   -13.07155  -10.42508   -1.08775
       O   -13.32684  -10.72887   -0.20441
      H1   -13.23429  -11.68771   -0.26928
       H   -13.97123  -17.68674  -14.43575
       O   -13.25735  -17.65531  -13.79977
      H1   -13.66889  -17.54388  -12.94137
       H   -16.00493  -13.65975  -13.27278
       O   -15.61407  -13.39630  -12.41119
      H1   -14.85300  -14.06737  -12.39224
       H   -17.89468  -13.26030  -15.29889
       O   -17.13315  -13.71609  -14.95695
      H1   -16.90263  -14.32382  -15.68826
       H    -8.93448  -14.91926   -7.34036
       O    -9.68189  -15.11531   -6.75062
      H1    -9.81229  -14.26726   -6.26966
       H   -16.01397  -12.12714  -15.27548
       O   -15.35443  -11.41334  -15.41131
      H1   -15.55957  -10.76928  -14.72964
       H    -8.41040  -15.22208   -3.09106
       O    -9.05572  -15.43574   -3.80967
      H1    -8.44568  -15.44769   -4.58276
       H   -18.89605  -15.47688  -11.72389
       O   -19.59052  -15.99374  -12.21520
      H1   -19.07498  -16.33029  -13.08163
       H   -15.44037  -10.32834   -9.62780
       O   -15.68871   -9.74338   -8.90177
      H1   -14.87234   -9.32368   -8.67760
       H   -12.77593  -10.54816   -7.42916
       O   -12.44502  -10.55087   -8.33720
      H1   -11.52548  -10.43745   -8.19305
       H   -15.28259  -11.83111  -11.96291
       O   -14.97370  -10.99662  -11.55113
      H1   -15.37693  -10.35277  -12.19348
       H   -18.64642  -15.34372   -5.67220
       O   -17.68770  -14.99165   -5.63133
      H1   -17.17286  -15.80883   -5.50264
       H   -13.76311  -14.09179    0.04944
       O   -14.06303  -13.33853   -0.47546
      H1   -14.95513  -12.99698   -0.23840
       H   -18.92789  -12.40958   -9.34760
       O   -19.30505  -11.64603   -9.81809
      H1   -19.19148  -10.89433   -9.19196
       H   -10.36475  -12.52659   -5.07681
       O   -10.15637  -12.36682   -6.00323
      H1   -10.95152  -11.96139   -6.33179
       H   -19.64951   -9.21518   -7.57901
       O   -18.91783   -9.14794   -8.17585
      H1   -19.01150   -8.25906   -8.65519
       H   -17.27904  -14.55959   -7.91109
       O   -17.36890  -13.70736   -8.30399
      H1   -16.62916  -13.12312   -8.02195
       H   -17.71060  -17.60905   -2.40203
       O   -18.23922  -17.88169   -3.15586
      H1   -18.25241  -18.84637   -2.99842
       H   -12.92334  -14.14750  -11.21019
       O   -13.12961  -14.90158  -11.81135
      H1   -13.32190  -15.62774  -11.14549
       H    -8.71599  -17.80077   -9.25968
       O    -8.06910  -18.39664   -8.82079
      H1    -7.43792  -18.55079   -9.56252
       H   -16.74177  -19.32618  -14.47707
       O   -17.57910  -18.99881  -14.16955
      H1   -17.88720  -19.79198  -13.72797
       H   -18.57159  -16.97900   -7.97332
       O   -18.07212  -17.78128   -7.78875
      H1   -17.56350  -17.40445   -7.03595
       H   -16.45978  -16.17938  -14.17970
       O   -15.89485  -16.77690  -13.73813
      H1   -16.43994  -17.61543  -13.73687
       H   -15.00910  -14.71264   -3.37590
       O   -14.75866  -15.26752   -2.57635
      H1   -14.45868  -14.55608   -1.99443
       H   -15.93078  -16.26782   -1.76657
       O   -16.51295  -16.91542   -1.33663
      H1   -17.28623  -16.42986   -1.03740
       H   -15.22793  -17.53794    0.12994
       O   -14.33186  -17.95260    0.01776
      H1   -14.35568  -18.05779   -0.88145
       H   -10.84339  -12.49605   -9.96586
       O   -10.06478  -11.98146   -9.84334
      H1    -9.58611  -12.09263  -10.67813
       H   -18.79650  -11.44923  -12.72050
       O   -17.87047  -11.16074  -12.69043
      H1   -17.76708  -11.24712  -11.75092
       H   -12.62085  -17.62087    0.65711
       O   -11.89791  -17.33646    1.23165
      H1   -11.32207  -18.18874    1.27073
       H   -16.84962  -14.16423  -11.24128
       O   -17.48156  -14.80997  -10.87949
      H1   -17.57584  -14.59476   -9.95754
       H   -13.34598   -8.20599   -7.06738
       O   -13.53772   -8.18938   -8.01446
      H1   -12.95517   -8.93618   -8.24380
       H   -14.43625  -17.95050  -10.75145
       O   -13.55201  -17.72321  -11.01271
      H1   -13.09632  -18.20371  -10.30852
       H   -18.77018  -14.98349   -0.34523
       O   -18.64449  -15.93742   -0.12464
      H1   -18.76718  -15.91311    0.82067
       H   -13.99010  -18.16509   -3.13118
       O   -14.03662  -19.03188   -2.69023
      H1   -14.84628  -19.42751   -2.99333
       H    -9.47068  -17.98711  -13.72437
       O    -9.62098  -18.56540  -12.94766
      H1    -9.93211  -17.96648  -12.25170
       H   -15.65415  -11.57778   -3.32657
       O   -15.38216  -10.82610   -2.77512
      H1   -14.40578  -10.82011   -2.86292
       H   -14.50768  -10.80004   -6.30844
       O   -13.66446  -10.61033   -5.84372
      H1   -14.06020   -9.93117   -5.26135
       H   -17.74876  -10.37613   -5.90005
       O   -17.46859   -9.44681   -5.65407
      H1   -17.76742   -8.97533   -6.43248
       H   -18.26404  -17.37839  -15.04606
       O   -18.84860  -16.63690  -14.76513
      H1   -18.74389  -15.86363  -15.35130
       H   -16.90892  -17.28746   -9.33095
       O   -16.09286  -16.97424   -9.81362
      H1   -16.37815  -16.17633  -10.29012
       H   -16.35129  -16.40630  -17.14485
       O   -15.90376  -15.64866  -16.71388
      H1   -15.15237  -16.18409  -16.35886
       H   -13.95475  -16.45050   -7.22756
       O   -14.40177  -15.70976   -7.71725
      H1   -15.00147  -16.18301   -8.27912
       H   -15.15308   -9.13738   -3.57640
       O   -15.03901   -8.45120   -4.25476
      H1   -15.84001   -8.41747   -4.76150
       H   -16.57382  -18.09308   -4.82880
       O   -16.49401  -17.57126   -5.62580
      H1   -15.55561  -17.48571   -5.77105
       H   -10.90698  -15.11247   -8.34751
       O   -11.01606  -14.85510   -9.29162
      H1   -10.08916  -14.60039   -9.41413
       H   -12.57876  -15.70455   -3.37724
       O   -12.48369  -16.67982   -3.39830
      H1   -11.54854  -16.85352   -3.41321
       H   -16.29839  -13.46921   -4.90370
       O   -15.51125  -13.17157   -4.41329
      H1   -15.01682  -12.88856   -5.19259
       H    -9.95185  -18.99038   -4.16932
       O   -10.18317  -18.25930   -3.57225
      H1    -9.98891  -17.42345   -4.01943

