180
frame 1 | Written by MDAnalysis XYZWriter (release 2.4.3)
       H     6.10592    0.96299   -3.53010
       O     5.23297    1.36044   -3.45497
      H1     4.81377    0.47200   -3.44671
       H     1.85058    4.57062   -8.18103
       O     1.44286    5.51139   -8.02434
      H1     0.49577    5.48716   -8.25992
       H     4.93992    0.37281   -6.01830
       O     5.18313    0.24341   -6.97897
      H1     5.93264   -0.36897   -6.83973
       H     5.90031    3.39073   -4.60907
       O     6.20236    4.31518   -4.59624
      H1     5.64652    4.66802   -3.86373
       H     6.08855    8.66349   -4.52880
       O     5.56493    7.86300   -4.80709
      H1     4.64049    8.15024   -4.55155
       H     2.10720    1.76726   -9.19494
       O     1.28520    2.36570   -9.37354
      H1     1.04508    2.02070  -10.26651
       H    -1.99841    3.72848   -3.85559
       O    -1.04761    3.48683   -3.85291
      H1    -0.58160    4.29652   -3.58422
       H     3.34167    2.95270  -10.14872
       O     3.73790    2.82691  -10.97767
      H1     4.12669    3.63035  -11.25236
       H    12.40069    6.52607   -5.62793
       O    11.92226    7.35047   -5.38041
      H1    12.46275    7.69508   -4.68330
       H    -0.74860    5.87314   -2.30509
       O    -0.00937    5.74568   -2.91269
      H1     0.76038    5.68886   -2.26816
       H     2.05525    8.54766   -8.60308
       O     1.38780    8.20516   -9.24312
      H1     1.47921    7.22301   -9.09570
       H     8.05780    4.81228   -4.79773
       O     8.97873    4.95885   -4.50643
      H1     9.57512    4.77087   -5.27658
       H    10.07801    5.10868   -7.46395
       O    10.66373    4.39444   -7.12129
      H1    10.03316    3.70324   -6.92349
       H    10.19989    8.10959   -4.14252
       O     9.69127    7.84610   -3.39838
      H1     9.61586    6.88302   -3.39897
       H     4.03479   11.88313   -1.40288
       O     3.61020   12.15942   -2.23568
      H1     3.08197   11.39682   -2.52826
       H     6.39506    6.21832    1.85414
       O     6.26365    6.02147    2.76159
      H1     5.61898    5.34715    2.66271
       H     7.57874   -1.76910   -5.28990
       O     7.39553   -1.88186   -6.23296
      H1     6.87008   -2.76062   -6.14776
       H     5.88213    7.56952   -6.36640
       O     6.16570    7.72587   -7.29914
      H1     6.12886    6.77926   -7.64129
       H     6.81285    1.35819   -0.96346
       O     5.96255    1.89224   -0.92854
      H1     5.68414    1.72390   -1.80332
       H     5.45600    6.77222   -3.11221
       O     4.99807    6.33306   -2.38452
      H1     5.57276    6.54692   -1.63643
       H     8.88729    4.36323    0.52401
       O     8.98345    4.75624   -0.38453
      H1     9.82974    5.20496   -0.22145
       H    10.46122    3.72282   -1.76608
       O    10.80795    3.91529   -2.62900
      H1    10.07141    4.35664   -3.02175
       H     4.40661   10.99478   -5.45283
       O     5.35475   10.79805   -5.64387
      H1     5.18173    9.84080   -5.73448
       H    12.07026    1.78645    0.22430
       O    11.29446    2.06537   -0.21077
      H1    10.68308    2.24707    0.52860
       H     6.83332    7.39792   -0.07377
       O     6.46609    6.50347   -0.08768
      H1     7.25019    5.95478   -0.22858
       H     3.81099   -1.24941   -2.46142
       O     4.16840   -1.15019   -3.35312
      H1     3.28067   -1.10627   -3.79709
       H     5.00819   12.64243   -3.07220
       O     5.90232   12.76085   -3.47596
      H1     5.83333   12.02391   -4.08669
       H     3.68000    3.83811    3.11297
       O     4.55933    3.63559    2.76950
      H1     4.39310    3.13850    1.99133
       H    10.07154    2.36503   -5.43407
       O     9.23964    2.25489   -5.91333
      H1     9.44173    1.55015   -6.50948
       H     2.53994    7.35469    1.59889
       O     1.96354    6.59846    1.71475
      H1     2.21928    6.15983    2.56211
       H     6.62782    4.64521   -8.84608
       O     6.72381    5.16933   -8.03634
      H1     6.09525    4.62643   -7.56487
       H     4.72393    2.28914   -7.27941
       O     4.78761    3.23395   -7.38755
      H1     4.50207    3.52648   -6.50961
       H     2.96559    4.76143   -0.75149
       O     2.17771    5.37572   -0.88186
      H1     2.17102    5.75657    0.02149
       H     4.37756    8.66348   -7.81633
       O     3.48710    9.03316   -7.75100
      H1     3.53218    9.77439   -8.37731
       H     8.77010    7.00810   -8.23921
       O     9.37826    6.40776   -8.65456
      H1     9.01557    6.52296   -9.57190
       H     1.38643    3.78764   -0.02712
       O     1.46053    2.98280    0.44914
      H1     0.95274    2.37445   -0.03860
       H     9.82921    9.15073   -1.94490
       O    10.19311    9.44508   -1.05569
      H1    10.40914   10.36118   -1.18034
       H     8.37331   -0.91088   -3.40157
       O     8.24728   -1.83273   -3.51821
      H1     8.84430   -2.23560   -2.80473
       H    -0.13086    4.65250   -6.23564
       O    -0.91900    4.12119   -6.40767
      H1    -1.12179    3.69073   -5.58996
       H     7.83741   10.56369   -3.83410
       O     7.51179    9.70547   -3.55006
      H1     8.35445    9.18633   -3.57006
       H     6.32603    9.32088   -2.10603
       O     5.89830    9.12944   -1.23513
      H1     5.75305   10.01007   -0.89073
       H     0.26819    6.57901   -4.52121
       O     0.58228    7.01445   -5.32803
      H1    -0.19717    7.43687   -5.68884
       H     7.19438    8.85072   -8.13465
       O     7.87629    9.21983   -8.78439
      H1     8.60021    9.33211   -8.10227
       H    12.96738    1.83184   -3.89214
       O    12.67731    1.21982   -3.19726
      H1    11.73845    1.39842   -3.20332
       H     8.81175    9.81359    0.03909
       O     8.18331   10.14903    0.71876
      H1     7.98255   11.06884    0.41921
       H     1.32100   -1.60336   -3.60541
       O     1.65203   -0.97659   -4.30127
      H1     1.82838   -1.50378   -5.13533
       H     3.83433    8.70441   -0.61509
       O     2.99633    8.36690   -0.29714
      H1     3.13119    7.41596   -0.33470
       H    -0.19156    0.21440   -4.59754
       O    -0.97492    0.58613   -4.08506
      H1    -0.82389    1.53547   -4.09425
       H     5.20751    4.57986   -1.47534
       O     4.45865    4.03724   -1.10299
      H1     4.93183    3.15755   -0.99668
       H     3.36366   -0.34665    0.08927
       O     3.60664    0.47283   -0.47661
      H1     4.44166    0.63866   -0.05874
       H     2.61481   -0.28085   -9.01155
       O     3.25545    0.45211   -8.90291
      H1     3.85581   -0.01725   -8.25718
       H     0.37761    7.88173   -2.40866
       O     0.67808    8.68761   -1.93930
      H1     1.43686    8.37216   -1.33167
       H     8.29009    1.94587   -2.81249
       O     8.20967    1.29520   -3.52377
      H1     8.42879    1.81269   -4.34731
       H     7.98784    0.27816    0.40420
       O     8.27516    0.46415   -0.54077
      H1     9.15005    0.93135   -0.37264
       H     5.54843    2.96040  -10.01382
       O     6.40054    3.41038  -10.17723
      H1     6.27525    4.19640  -10.71519
       H     9.18251   -0.32033   -8.37302
       O     9.40577   -0.51231   -7.47005
      H1     8.57229   -0.90158   -7.15443
       H     0.46946    0.82529   -2.49148
       O     0.71242    0.92060   -1.59580
      H1     1.65492    1.02189   -1.58709
       H     0.53287   11.02444   -4.39652
       O     1.04310   10.94401   -3.57520
      H1     1.16704    9.95134   -3.52174
       H     3.05324    8.89837   -5.98135
       O     2.87413    8.65309   -5.05966
      H1     2.22850    7.94706   -5.25957
       H     2.97586    4.92947   -4.83469
       O     2.78413    4.33177   -5.59749
      H1     2.35236    4.87897   -6.29877

