180
frame 5 | Written by MDAnalysis XYZWriter (release 2.4.3)
       H   -19.11617  -10.67844   16.34272
       O   -18.40845  -10.56449   17.09481
      H1   -17.58537  -10.96510   16.79698
       H    -9.83783  -17.46879   14.37772
       O   -10.02709  -17.59360   15.30620
      H1    -9.50153  -18.31997   15.60106
       H    -8.13889  -11.05094    8.25048
       O    -9.02869  -11.27211    8.49010
      H1    -9.17297  -10.78851    9.33540
       H    -9.18925  -10.73010   11.67803
       O    -9.75138  -10.35674   10.95278
      H1   -10.10559   -9.65697   11.49325
       H   -14.41800  -10.17610   10.24172
       O   -13.65814   -9.95199    9.70718
      H1   -14.05145   -9.23558    9.22436
       H    -8.27668  -10.96917   15.05832
       O    -7.58847  -10.55110   15.64542
      H1    -6.87836  -10.53188   14.98330
       H    -7.77116   -8.34216   11.91751
       O    -7.28038   -7.76358   11.30027
      H1    -7.64266   -8.07236   10.41799
       H    -6.09891  -12.60903   10.96266
       O    -6.72977  -13.36458   11.06574
      H1    -6.23355  -14.13137   10.80331
       H   -11.48459  -14.76883    7.05438
       O   -11.95150  -15.61715    7.21747
      H1   -12.78143  -15.23220    7.54598
       H   -11.35248  -15.97734   18.13757
       O   -11.35730  -16.00954   19.12105
      H1   -12.28866  -15.72458   19.34674
       H   -12.69984  -10.89200   13.51330
       O   -13.28952  -10.23539   13.92808
      H1   -13.96863  -10.89607   14.35702
       H    -5.56065  -14.08933   12.53320
       O    -4.94654  -14.63009   13.00288
      H1    -5.57190  -15.09726   13.63847
       H   -12.68499  -13.22538   17.29104
       O   -12.05518  -13.67011   16.78161
      H1   -11.27792  -13.12535   16.93948
       H    -7.94244   -9.27892   14.30739
       O    -8.26373   -8.59991   13.67803
      H1    -9.18865   -8.77901   13.74954
       H    -5.20474  -10.90549   13.35791
       O    -5.44968  -10.24137   14.05018
      H1    -4.77862   -9.59289   13.95032
       H    -8.43665  -17.86107   12.05271
       O    -9.10592  -17.12865   12.27461
      H1    -9.96978  -17.46416   11.98032
       H   -15.15701  -14.87757   16.25541
       O   -15.83131  -14.30319   15.93748
      H1   -15.38337  -13.86198   15.18642
       H    -7.90541   -7.38015   15.31481
       O    -8.00704   -6.43428   15.43924
      H1    -8.65138   -6.28131   14.80351
       H   -12.44851  -11.33657    9.76354
       O   -12.16911  -12.21295   10.13639
      H1   -13.02917  -12.60592   10.32187
       H    -9.59279   -6.54101   16.40110
       O   -10.46714   -6.32811   16.77689
      H1   -10.83328   -7.17410   17.11714
       H   -11.44202   -5.49873   11.23620
       O   -11.49377   -6.45222   11.17452
      H1   -11.46484   -6.63833   10.22276
       H   -14.39784  -18.23800   12.69488
       O   -14.73592  -18.68613   13.47826
      H1   -14.96687  -17.87199   13.92343
       H   -15.30530  -15.07499    8.77594
       O   -14.41394  -15.45792    8.69776
      H1   -14.77883  -16.35607    8.59624
       H   -19.86792  -10.32779   11.76366
       O   -19.49705  -11.03389   11.26735
      H1   -18.80025  -11.19550   11.92982
       H   -10.43218  -14.83037   10.00331
       O   -10.63709  -15.74331    9.63984
      H1   -11.12264  -15.71219    8.76269
       H   -15.65217  -12.50771   10.87430
       O   -15.53210  -11.56910   11.13676
      H1   -16.27196  -11.44717   11.76191
       H   -18.03104   -9.89250   10.33653
       O   -17.47730  -10.09436    9.60525
      H1   -16.96699  -10.84806    9.86825
       H   -11.29244  -16.84658   10.71161
       O   -11.58072  -17.48590   11.37000
      H1   -11.99172  -16.88970   12.05608
       H   -18.42733   -7.54142   12.47360
       O   -17.66897   -6.95418   12.44310
      H1   -17.12125   -7.45038   11.79879
       H   -14.29049   -8.40539   16.19029
       O   -14.15078   -9.23098   16.71906
      H1   -13.27338   -9.50068   16.24748
       H   -14.15434   -7.47226   19.57057
       O   -13.54560   -7.55150   18.75644
      H1   -13.99829   -8.20000   18.26674
       H    -8.46101  -15.37083   14.52285
       O    -8.94254  -14.87305   13.90911
      H1    -8.94919  -15.42461   13.11011
       H   -11.85841   -7.74973   14.58948
       O   -12.47984   -7.23269   15.09704
      H1   -11.79064   -6.76686   15.58421
       H   -15.01070  -17.11138   11.39781
       O   -14.64858  -16.49914   12.03614
      H1   -15.22684  -15.75473   11.94513
       H   -17.20628  -14.39983   10.43717
       O   -16.73639  -13.82920    9.76244
      H1   -17.38000  -13.77524    9.09140
       H   -11.82622  -13.20479   13.04523
       O   -12.06645  -12.31781   12.87090
      H1   -12.10299  -12.23057   11.89589
       H   -13.46527  -14.71710   11.57418
       O   -13.95601  -14.02273   11.09034
      H1   -14.08366  -14.48720   10.21884
       H   -12.41868  -15.00786   14.44604
       O   -11.98860  -14.93738   13.52678
      H1   -11.05707  -15.09063   13.70455
       H   -16.76292  -15.70742   15.19052
       O   -17.21828  -16.31742   14.61172
      H1   -17.76285  -16.85049   15.16200
       H    -9.91238  -11.34198   17.68627
       O    -9.74721  -12.24642   17.38255
      H1    -9.19637  -12.55335   18.10678
       H   -13.17125   -5.53378   14.04702
       O   -14.01054   -5.07466   13.84073
      H1   -14.62810   -5.70042   14.32225
       H   -11.83453   -8.07172   12.60551
       O   -11.35595   -8.86472   12.91010
      H1   -12.10568   -9.38808   13.22469
       H    -8.86458  -15.99460    8.92942
       O    -7.97637  -16.02946    8.55137
      H1    -8.25758  -16.07640    7.62327
       H    -9.71867  -13.34630    7.55705
       O   -10.06413  -13.55920    6.68534
      H1    -9.24608  -13.47732    6.17209
       H    -8.98392   -8.97659    9.37641
       O    -8.51129   -8.20125    8.97186
      H1    -9.17548   -7.49351    9.00326
       H   -13.99255  -17.22134   17.87966
       O   -14.69898  -16.90468   17.23105
      H1   -14.67224  -17.75827   16.76376
       H   -15.58096  -12.12051   16.43334
       O   -15.95228  -11.33792   15.93731
      H1   -15.39062  -10.53414   16.13592
       H    -9.43534  -15.05383   17.10133
       O    -8.80919  -15.79789   17.21815
      H1    -8.98643  -16.24582   16.39296
       H   -15.43297  -12.93922   13.15904
       O   -14.67897  -13.08560   13.81177
      H1   -13.89963  -13.15298   13.19320
       H   -10.11688  -11.74874   13.32505
       O    -9.22108  -11.78651   13.60769
      H1    -8.90300  -12.65295   13.39401
       H   -17.61790  -16.13758   12.86887
       O   -17.63675  -15.66211   11.99004
      H1   -18.52775  -15.87557   11.55745
       H   -10.09473  -12.87725   10.30604
       O    -9.55677  -13.53103   10.79059
      H1    -8.66199  -13.22520   10.50951
       H   -17.37932  -11.45178   13.94633
       O   -17.42023  -10.93233   13.11383
      H1   -17.02044  -10.08448   13.38013
       H    -6.70644  -17.18582   14.07436
       O    -6.99189  -16.76549   14.92362
      H1    -7.11029  -17.59606   15.39343
       H   -14.03258  -11.62433   19.05761
       O   -14.34101  -12.49812   18.69058
      H1   -15.32870  -12.27318   18.77361
       H   -12.32994   -9.91400    7.29572
       O   -11.95989  -10.40105    6.55636
      H1   -11.46297  -11.08711    6.96767
       H   -10.81853   -9.38454   18.63972
       O   -11.54864   -9.10342   18.03850
      H1   -12.20453   -8.76323   18.65953
       H   -16.33767   -6.44718   15.35283
       O   -15.84405   -6.81689   14.59630
      H1   -16.54212   -6.89682   13.86396
       H    -9.20843   -5.25369   12.94560
       O    -9.87833   -5.70223   13.44033
      H1   -10.38145   -6.10781   12.72626
       H   -15.63171   -7.08272   10.18249
       O   -16.09112   -7.82309   10.56824
      H1   -16.44978   -8.32025    9.82154

