180
frame 10 | Written by MDAnalysis XYZWriter (release 2.4.3)
       H   -15.83373   -6.12242   -3.05988
       O   -16.14732   -5.75938   -3.87847
      H1   -17.07074   -6.03637   -3.82007
       H   -10.87591   -3.57138   -3.38847
       O   -11.33230   -3.48454   -2.54691
      H1   -12.21951   -3.19161   -2.92313
       H   -12.90579   -7.60871   -1.70255
       O   -13.08947   -8.56334   -1.63743
      H1   -12.15502   -8.90679   -1.54300
       H    -7.00068    0.43726   -8.48616
       O    -7.08011   -0.27770   -7.83970
      H1    -8.06897   -0.31405   -7.78853
       H   -13.49692    1.13594   -6.55608
       O   -13.52785    2.06513   -6.84711
      H1   -13.91937    1.85511   -7.71362
       H    -9.47533   -3.72029   -4.98056
       O   -10.46255   -3.69544   -5.09131
      H1   -10.62153   -4.61221   -5.33632
       H    -9.96396   -2.42574    1.20653
       O    -9.50997   -1.67787    0.79227
      H1    -8.69641   -2.12792    0.62402
       H    -9.73017    2.34343   -1.78499
       O    -9.92055    1.94583   -0.95325
      H1    -9.00962    1.87964   -0.63932
       H   -13.00137    3.90849   -1.47242
       O   -12.87819    3.52060   -0.58262
      H1   -13.76232    3.30386   -0.33916
       H   -11.63771    0.31899   -1.48844
       O   -12.49625    0.69168   -1.14088
      H1   -12.33787    1.65790   -1.12248
       H   -13.78884   -3.47019   -9.59200
       O   -13.08175   -2.84831   -9.76732
      H1   -12.55061   -2.79376   -8.97637
       H    -4.91632   -5.44460   -1.60074
       O    -5.13519   -5.45429   -0.67825
      H1    -4.50551   -5.99509   -0.25807
       H   -14.03050   -4.44626   -0.39780
       O   -14.95682   -4.22550   -0.57985
      H1   -15.23347   -3.72369    0.17301
       H   -11.57457   -3.63396    1.50321
       O   -10.77091   -4.17216    1.47611
      H1   -10.56930   -4.60450    2.27962
       H   -10.40448   -6.27960   -6.59515
       O   -11.16376   -6.19463   -5.96392
      H1   -11.04154   -6.99619   -5.51053
       H    -5.39323   -1.25104    3.44693
       O    -5.03094   -1.59181    2.63616
      H1    -5.82073   -2.12404    2.30181
       H   -14.22619   -1.36200   -5.44363
       O   -13.97453   -0.67182   -6.09612
      H1   -13.34412   -1.19686   -6.64129
       H    -7.28064   -6.51457    0.01858
       O    -7.68255   -7.00107    0.72348
      H1    -7.65703   -6.35354    1.47264
       H   -11.56263    0.24694    4.14255
       O   -11.01444   -0.47407    4.42007
      H1   -11.59984   -1.25474    4.40874
       H   -12.12652    0.96364    0.85762
       O   -11.69664    0.34422    1.42448
      H1   -10.86762    0.13465    0.95327
       H    -9.69417   -0.00325    3.31628
       O    -8.86987    0.01613    2.81111
      H1    -9.15684   -0.57904    2.13716
       H   -15.70945    1.53505    0.45769
       O   -15.86758    0.59750    0.19333
      H1   -15.32732    0.01491    0.79028
       H    -6.82820   -3.61328    1.58481
       O    -6.82929   -2.77469    1.04715
      H1    -6.17929   -3.05008    0.31341
       H    -9.39482   -0.71849   -3.29264
       O    -8.83451   -0.82764   -4.12041
      H1    -7.96572   -0.78679   -3.62047
       H   -14.04680   -4.19645    2.18893
       O   -13.49329   -3.45810    2.42231
      H1   -14.00319   -2.70941    2.03810
       H   -17.16773   -1.18776   -7.38946
       O   -16.49642   -1.57578   -6.78286
      H1   -15.76828   -0.91877   -6.69432
       H    -6.19934    0.17876   -2.48939
       O    -6.31077   -0.73058   -2.81508
      H1    -5.78702   -1.22611   -2.15816
       H   -10.09364   -8.21402   -1.72651
       O   -10.55721   -8.99431   -2.04022
      H1   -10.48011   -8.66041   -2.98479
       H   -13.32032   -0.88426    1.00814
       O   -14.20112   -0.91941    1.49120
      H1   -13.96120   -0.36548    2.28952
       H   -11.20052    5.27864   -4.98319
       O   -11.02273    4.56129   -4.40285
      H1   -10.08285    4.62422   -4.34688
       H    -9.39385   -0.54083   -5.81960
       O    -9.81071   -0.39915   -6.69496
      H1    -9.98617    0.55307   -6.63626
       H    -6.40487   -3.23951   -8.86201
       O    -7.11683   -3.29351   -8.15907
      H1    -7.80767   -3.84063   -8.63724
       H   -10.01392   -6.23383   -1.19005
       O    -9.24221   -6.71965   -1.58777
      H1    -8.81614   -7.04605   -0.79696
       H   -11.53338    1.66493    2.61034
       O   -11.42303    2.09286    3.49506
      H1   -10.52240    1.87101    3.71909
       H    -6.00644   -4.82665    2.84450
       O    -6.94891   -5.01111    2.65492
      H1    -7.31503   -5.52520    3.37144
       H   -17.69975   -2.36510    0.59511
       O   -16.80964   -2.67284    0.87990
      H1   -16.92739   -2.73313    1.84256
       H   -15.14868    0.36952   -1.37126
       O   -14.83931    0.62948   -2.24250
      H1   -13.80970    0.68539   -2.11117
       H   -11.51034   -2.89545   -6.28641
       O   -11.69257   -2.37679   -7.10935
      H1   -11.10729   -1.61632   -6.96494
       H    -5.77479    2.44410   -1.88022
       O    -6.64361    2.04653   -1.71614
      H1    -6.64024    1.97530   -0.74856
       H    -4.91283   -1.44294   -4.25984
       O    -4.62456   -0.80261   -4.94465
      H1    -5.39845   -0.26905   -4.99210
       H    -9.14428    5.26861   -0.10611
       O    -9.67612    4.66975    0.44996
      H1    -9.78402    3.90125   -0.15159
       H    -3.88088   -2.46232   -0.86578
       O    -4.80453   -2.77364   -0.99660
      H1    -4.65709   -3.73267   -0.91106
       H   -12.98452   -7.63293    2.20573
       O   -13.00823   -6.66795    2.28045
      H1   -13.92271   -6.40158    2.38286
       H    -7.87254    3.72794   -2.13516
       O    -8.74397    3.96886   -2.41431
      H1    -8.65726    4.85119   -2.81929
       H   -14.73698   -0.26101    4.26898
       O   -14.00809    0.33445    3.90223
      H1   -14.33137    1.23732    4.00418
       H   -14.91812   -7.67204   -0.99313
       O   -15.29442   -6.91365   -1.50580
      H1   -15.22322   -6.17768   -0.87551
       H   -11.77112   -5.90374    3.47494
       O   -11.07164   -5.57993    4.11350
      H1   -11.66732   -5.07324    4.72039
       H   -10.05199    3.39036   -6.48225
       O   -10.37326    2.52152   -6.86973
      H1   -11.31841    2.73406   -6.72004
       H   -14.40158   -1.01167   -3.34397
       O   -14.37897   -1.86612   -3.74185
      H1   -15.20158   -2.26569   -3.49837
       H   -12.29513   -6.78092   -6.99366
       O   -12.96328   -7.27971   -7.48339
      H1   -13.54717   -7.58387   -6.78845
       H   -12.02316   -4.58390   -1.23867
       O   -12.38226   -5.29130   -0.68876
      H1   -11.98108   -5.08865    0.16629
       H    -7.76180   -0.49914    3.95873
       O    -7.00523   -0.71168    4.52935
      H1    -6.80699    0.12946    4.92978
       H    -8.10924   -2.72909   -5.18997
       O    -7.54799   -3.53652   -5.41005
      H1    -7.58837   -3.42088   -6.37621
       H    -6.63324    0.83652    1.04528
       O    -7.36141    1.46179    1.01468
      H1    -7.91259    1.06436    1.69818
       H   -16.43722   -4.09546   -2.97000
       O   -16.85213   -3.32558   -2.53341
      H1   -16.32406   -3.26261   -1.74449
       H    -9.66824   -1.43552   -1.01128
       O   -10.15038   -1.08641   -1.74667
      H1   -10.68411   -1.83175   -2.03235
       H   -12.59015    4.48415   -3.63689
       O   -13.31043    4.77450   -2.99864
      H1   -14.01398    4.18731   -3.29384
       H   -16.36588    1.15455   -3.01403
       O   -17.27106    1.36599   -3.25247
      H1   -17.73143    0.68116   -2.76168
       H    -7.12933    0.50383   -6.41171
       O    -7.21521    1.05510   -5.59401
      H1    -7.87736    0.52650   -5.17952
       H    -6.11477   -4.41377   -4.59001
       O    -5.25681   -4.61569   -4.13874
      H1    -5.36521   -5.58823   -4.08648

