180
frame 0 | Written by MDAnalysis XYZWriter (release 2.4.3)
       H     4.38885   -1.11861    6.49226
       O     4.45523   -1.67097    5.67524
      H1     3.61063   -2.18716    5.58331
       H    15.89665   -0.16230   10.42475
       O    16.71672    0.07538    9.97518
      H1    17.35349   -0.61666   10.08497
       H    11.62364    2.78231    8.97136
       O    11.60015    3.26996    8.10718
      H1    12.27705    2.84940    7.55364
       H     6.84138   -4.49766    1.80135
       O     6.50969   -4.01669    1.03554
      H1     7.13247   -3.30416    0.78140
       H    12.94611    2.40289   10.60675
       O    12.01614    2.11985   10.49804
      H1    11.98609    1.21323   10.88581
       H    14.49603   -0.43013    7.91860
       O    15.39885   -0.38914    7.59335
      H1    15.90079   -0.17785    8.39771
       H     6.06614    1.13472    2.02690
       O     7.00986    0.94264    2.08500
      H1     7.04328    0.18943    2.73053
       H     8.96221   -0.00207   12.33278
       O     9.05369   -0.99193   12.39691
      H1     8.98189   -1.22440   13.34036
       H    15.77235    0.42701    4.24490
       O    16.04843   -0.38730    3.81293
      H1    16.09295   -0.01519    2.91361
       H     4.07890    0.13038    8.68855
       O     4.33021    0.13253    7.72778
      H1     4.39429    1.08608    7.68329
       H    14.29035    4.23470    6.77103
       O    14.28964    3.59663    7.49897
      H1    13.58384    4.03719    8.03339
       H    12.29786   -3.06689    0.63520
       O    11.35960   -3.26958    0.82303
      H1    10.89349   -2.48507    0.43970
       H    13.43639   -3.95992    2.99948
       O    13.07453   -3.06991    2.88482
      H1    12.32771   -3.31307    2.29821
       H    10.68865   -1.75063    6.04047
       O    10.41561   -1.64338    6.92298
      H1     9.54940   -1.28354    6.73898
       H     6.63332   -1.67283   11.39754
       O     6.25345   -1.78145   10.53954
      H1     6.52561   -2.72014   10.39590
       H     5.08058   -3.91944    2.35651
       O     4.27223   -3.46511    2.65217
      H1     3.75301   -4.26644    2.89862
       H     8.15601   -5.18151    2.77322
       O     7.25446   -5.28676    3.21041
      H1     7.01765   -6.22002    2.97644
       H    12.67181   -5.51843    5.13863
       O    12.53446   -6.28322    5.70872
      H1    11.60738   -6.41258    5.60799
       H     5.95251   -2.96804    5.37844
       O     6.85472   -3.26080    5.44367
      H1     6.93111   -3.92695    4.69132
       H    11.35586   -0.81274   11.80895
       O    11.69839   -0.79891   10.91682
      H1    12.54891   -1.12094   11.24273
       H    10.55705   -6.22882   11.60736
       O    10.41263   -5.60189   12.38135
      H1     9.52014   -5.29161   12.23108
       H    15.09692    1.23364    1.03244
       O    14.50045    1.87454    1.44141
      H1    14.28213    2.45598    0.64243
       H    15.19771   -6.22482    7.00156
       O    14.99669   -5.55206    7.65627
      H1    14.23374   -5.93079    8.13916
       H     9.30108    3.69639   11.14074
       O    10.12810    4.11327   10.85422
      H1    10.80856    3.41927   10.78875
       H     8.64114   -8.38831    6.31285
       O     9.12954   -9.21235    6.09692
      H1     9.99601   -8.97900    6.46697
       H    14.58714   -0.40378   12.20647
       O    14.38077   -1.14134   11.61099
      H1    15.06390   -1.80410   11.92766
       H    13.95562    3.60492    2.61816
       O    13.78335    4.55906    2.93633
      H1    12.95884    4.38656    3.38402
       H    11.62952    4.97435    4.84509
       O    11.60257    4.23424    4.21854
      H1    11.73088    3.40977    4.75293
       H     9.36501    5.67857    7.70750
       O    10.19799    5.51061    7.29102
      H1    10.61318    4.90874    7.88610
       H    12.62088    1.99123    0.56395
       O    11.68691    1.99248    0.28754
      H1    11.19574    2.19792    1.09045
       H     9.96160   -0.56671    2.12659
       O    10.24679   -0.61431    3.03842
      H1    11.21004   -0.41530    2.95358
       H    10.47848    2.84276    3.22333
       O    10.52830    2.12051    2.57932
      H1    10.44002    1.26480    3.11822
       H     5.43714    1.79599    4.83707
       O     5.60935    2.21723    5.68665
      H1     6.46486    1.91194    6.03054
       H    12.31405   -8.81982    7.63575
       O    11.59872   -8.61276    6.99335
      H1    12.15457   -8.06723    6.42649
       H    12.34159   -0.69507    7.43979
       O    12.76666   -0.01365    7.94896
      H1    12.45355   -0.16518    8.81793
       H     9.07642    1.63448    9.76577
       O     8.63177    1.19269   10.51107
      H1     8.09194    0.51497   10.08101
       H    11.40006    0.00367    0.61668
       O    10.89593   -0.68001    0.18042
      H1    11.26036   -0.75314   -0.74143
       H     8.14625   -1.47934   -0.52718
       O     8.50515   -2.32002   -0.17568
      H1     8.85374   -2.71052   -0.98000
       H     6.47578   -5.73395    8.27745
       O     5.88843   -6.51503    8.09395
      H1     6.48631   -7.14130    8.55841
       H    11.08221   -2.18186    9.74864
       O    11.10939   -2.89703    9.08879
      H1    10.95416   -2.48508    8.25939
       H     7.16470   -3.63508    7.48239
       O     7.52384   -4.29632    8.14285
      H1     8.45448   -4.15853    8.16402
       H    16.52328   -1.49240    5.19083
       O    17.14404   -1.79156    5.89877
      H1    16.63501   -1.55573    6.68565
       H    11.22647   -6.62041    9.45469
       O    10.85172   -7.22855   10.14229
      H1    10.36648   -7.86970    9.61086
       H     9.69653    3.80019    5.73678
       O     9.78141    2.92989    6.12796
      H1    10.27879    3.15564    6.93101
       H     9.98727   -4.49840    1.14062
       O     9.32225   -5.17516    1.39121
      H1     8.66858   -4.83842    0.74062
       H    12.48155   -3.16347    4.47840
       O    12.12588   -3.46610    5.37962
      H1    12.95597   -3.16798    5.88169
       H     7.16407   -1.61210    4.32972
       O     7.47319   -0.81790    3.91035
      H1     8.42931   -1.01832    3.83544
       H     7.88853    0.85006    0.42276
       O     7.96471    0.88493   -0.55921
      H1     8.84962    0.52243   -0.52699
       H    12.68148    1.44625    5.87890
       O    13.00232    1.76821    5.02308
      H1    13.07064    0.98167    4.45404
       H    11.99186   -4.51715    8.73941
       O    12.20235   -5.38874    8.49415
      H1    12.27924   -5.24862    7.52706
       H     8.71184    5.86440    4.79996
       O     8.50198    4.91798    4.64083
      H1     8.33067    4.84735    3.73580
       H     6.87970   -6.66507    6.49096
       O     7.57529   -7.18135    6.08675
      H1     7.88959   -6.68281    5.34775
       H    13.52048    0.43262    2.63813
       O    13.17869   -0.25915    3.19838
      H1    13.68489   -0.99694    2.94957
       H    14.95818   -4.90121    4.89218
       O    14.83735   -5.27715    3.94932
      H1    15.16936   -6.17743    4.17367
       H     4.76094   -2.71791    8.58834
       O     3.98121   -3.24824    8.73322
      H1     4.29123   -3.82137    9.45460
       H    10.35641   -6.82844    3.71937
       O     9.92883   -6.26225    4.40461
      H1    10.23702   -5.33861    4.14908
       H    14.82894    1.88506    5.43204
       O    15.70018    2.07628    4.97312
      H1    16.39128    1.92066    5.70156
       H     4.08756   -0.20574    2.74846
       O     4.51625    0.21743    3.50443
      H1     4.57084   -0.61042    4.13249
       H     8.92945    1.14237    6.33745
       O     8.24197    0.44530    6.26996
      H1     7.95380    0.38740    5.30904
       H    15.87140   -3.12138    6.16543
       O    14.98296   -3.46887    6.09040
      H1    14.97508   -4.01609    6.86180

