180
frame 2 | Written by MDAnalysis XYZWriter (release 2.4.3)
       H     5.01838   -1.36412    7.68723
       O     5.03375   -2.12330    7.09447
      H1     4.75696   -2.72448    7.84158
       H    -0.04210   -4.14215    6.37567
       O     0.43464   -4.97221    6.05829
      H1     1.02189   -5.22828    6.79173
       H    -4.01183   -7.34440    4.94829
       O    -4.82742   -6.78175    4.98113
      H1    -4.86713   -6.39705    5.88472
       H     4.46831  -10.68565   11.60477
       O     3.59308  -10.26534   11.66394
      H1     3.05381  -10.96167   11.27756
       H     8.82942   -8.40200    8.75739
       O     9.24361   -7.68245    9.26397
      H1     9.09725   -8.13067   10.09334
       H     0.23828   -9.74635   10.00506
       O     0.53763   -9.21726   10.81098
      H1     0.76432   -9.94576   11.40927
       H     1.49984  -14.34417    6.84339
       O     0.76163  -14.00833    7.39121
      H1     0.20578  -13.69825    6.67207
       H    -3.50886  -11.99296    6.86441
       O    -3.70943  -11.72100    5.92582
      H1    -3.36899  -10.81377    5.94293
       H     5.12318  -11.03018    7.51282
       O     4.54802  -11.46128    8.14323
      H1     3.82721  -10.83690    8.20065
       H    -2.28970   -8.15998    5.89174
       O    -2.50364   -8.21146    4.94532
      H1    -1.96648   -7.44828    4.63271
       H     6.66436   -9.93625    7.14046
       O     6.21078  -10.42824    6.44937
      H1     6.90092  -11.13498    6.23506
       H    -1.98274   -4.45363   11.68694
       O    -1.23729   -3.83607   11.52139
      H1    -0.92924   -4.38179   10.72457
       H     1.46927  -12.19495    2.43543
       O     0.80620  -12.76140    1.96251
      H1     0.37560  -12.16790    1.40011
       H    -0.10362   -6.85409    3.76578
       O    -0.82313   -6.30823    4.04846
      H1    -0.43271   -6.06574    4.92647
       H    -0.93609  -11.32456    3.53109
       O    -1.06161  -10.67676    2.84747
      H1    -1.63135   -9.97233    3.18030
       H    -0.65451   -6.21245    7.10353
       O    -1.40388   -6.76508    7.42183
      H1    -2.06338   -6.03815    7.52623
       H     4.73165   -3.09904    3.02458
       O     3.99046   -2.65719    3.47013
      H1     3.34331   -3.39443    3.47683
       H     4.52568   -9.94610    5.27098
       O     3.71644   -9.62351    4.82545
      H1     3.67217  -10.14561    4.03363
       H     1.80943   -8.72491    7.28750
       O     1.05267   -8.42550    6.78398
      H1     1.47292   -8.27353    5.93471
       H     5.59046  -11.62628   12.47275
       O     6.23060  -11.59990   11.68059
      H1     5.97757  -12.48216   11.27624
       H     6.09855   -7.55467    8.74645
       O     5.41578   -7.94216    9.31547
      H1     5.34046   -7.31721   10.02122
       H     4.09815   -7.97185   -0.16167
       O     4.44767   -8.56060    0.52651
      H1     4.16710   -8.09530    1.29860
       H    -4.69255   -9.41913    9.00600
       O    -5.56030   -9.30155    8.59939
      H1    -5.92185  -10.03494    9.18900
       H    -2.94418  -10.67320   12.42321
       O    -2.92626  -11.12749   11.57838
      H1    -3.09232  -10.40478   10.96414
       H    -2.33250   -9.23514    8.85952
       O    -3.04136   -9.08208    9.50482
      H1    -2.77499   -8.29711   10.02599
       H     2.12650  -10.60547    1.63437
       O     2.30219  -10.68722    2.56877
      H1     3.09238  -11.23503    2.54161
       H    -0.65750  -10.41739    7.84920
       O    -1.23963   -9.74837    7.46859
      H1    -0.55648   -9.12749    7.13239
       H     6.90650   -8.31884   11.69616
       O     6.83038   -7.90729   12.59964
      H1     5.82128   -7.79407   12.67031
       H    -3.25615  -13.00623    9.22178
       O    -3.88623  -12.81890    8.52860
      H1    -3.91626  -13.70131    8.08596
       H    -1.31111  -13.99615   10.80167
       O    -1.52689  -13.21671   10.26995
      H1    -1.96741  -12.60629   10.90025
       H     2.23532  -11.95571   13.43554
       O     2.56783  -12.10429   14.32581
      H1     2.19754  -12.94804   14.55298
       H     0.62663   -7.09701   12.32056
       O     1.48685   -6.96698   11.88646
      H1     1.52517   -7.62791   11.18034
       H    -0.83986  -13.81510    4.60325
       O    -0.30323  -13.18267    5.13784
      H1     0.35148  -12.93437    4.53347
       H     5.15262  -13.07330    2.56281
       O     4.65509  -12.37003    2.05130
      H1     5.20080  -12.13033    1.31197
       H     3.33515   -7.30600   13.26485
       O     4.00683   -7.96558   13.41835
      H1     3.74445   -8.64337   12.80779
       H     8.84462  -10.73384    7.44779
       O     8.66216   -9.77936    7.58045
      H1     9.24108   -9.45512    6.89165
       H     2.74783   -6.36821    8.21600
       O     1.86251   -6.08869    7.92929
      H1     1.55061   -6.89438    7.43364
       H     4.56038  -13.85994   11.27237
       O     3.87919  -13.23559   10.87342
      H1     3.89064  -13.39784    9.93935
       H    -2.16198   -3.55259    2.48188
       O    -2.23450   -3.89621    3.33560
      H1    -1.67660   -4.70872    3.39396
       H     0.69961  -12.69338   11.49387
       O     0.66117  -11.76052   11.76890
      H1    -0.22822  -11.69400   12.10054
       H     0.06442   -2.30794    8.78447
       O     0.91219   -2.70991    9.05297
      H1     1.41458   -2.61155    8.20316
       H     0.55413   -5.71780    9.68688
       O    -0.32026   -6.03310    9.88968
      H1    -0.55087   -6.42605    9.03256
       H     7.01136   -5.31568    8.59366
       O     7.35128   -6.06685    8.06813
      H1     7.97167   -6.41251    8.71101
       H     1.86396   -0.97295    6.85343
       O     2.07500   -1.95600    6.74289
      H1     3.04486   -2.01842    6.72854
       H     3.40150   -6.14796    3.22184
       O     3.94230   -6.92808    3.00171
      H1     3.68953   -7.74183    3.45012
       H     3.15444  -16.46488    7.49460
       O     3.19768  -15.76810    6.83149
      H1     3.96795  -15.25890    7.08453
       H    -0.52656  -11.35771   -0.50464
       O    -0.12225  -10.68550    0.07543
      H1    -0.47803  -10.81726    0.95591
       H     0.74905   -9.04326    3.80416
       O     1.14251   -8.22077    3.67567
      H1     1.31062   -8.13942    2.70226
       H    -0.11547  -12.21525    9.50958
       O     0.32868  -11.53876    8.89822
      H1     0.82319  -12.15567    8.33877
       H    -3.31877   -4.11754    7.13281
       O    -2.36752   -4.01576    7.46795
      H1    -2.10535   -3.24917    6.94386
       H     1.80040   -4.75932    4.46850
       O     2.27211   -4.68547    3.63741
      H1     1.53936   -4.81861    3.09584
       H     0.88986   -7.73320    0.16153
       O     0.82254   -7.48299    1.13318
      H1     0.96866   -6.53934    1.08968
       H     6.02845   -7.49758    1.75590
       O     6.93190   -7.60803    2.07683
      H1     7.14785   -6.73307    2.48778
       H     7.74659   -6.22570    6.42816
       O     7.95727   -6.57644    5.53249
      H1     8.92205   -6.40863    5.57265
       H     6.62939  -14.24428    9.21933
       O     6.22322  -14.03902    8.37840
      H1     5.80203  -13.17701    8.48063
       H     3.38612   -3.61945    9.06564
       O     4.28806   -3.87447    8.85326
      H1     4.75534   -3.35348    9.52537
       H     1.84508   -5.34318   11.31939
       O     2.10303   -4.47184   10.97435
      H1     1.28000   -4.20101   10.57256
       H     4.38780   -5.24905   11.02845
       O     5.11643   -5.64447   11.49338
      H1     4.90690   -5.25384   12.35639
       H    -1.54078   -6.84222   11.25086
       O    -2.36636   -7.05995   11.64879
      H1    -2.76888   -6.14833   11.65500
       H     2.16436   -8.52356    9.75298
       O     2.69409   -8.56654    8.94908
      H1     3.57153   -8.34061    9.21749

