180
frame 11 | Written by MDAnalysis XYZWriter (release 2.4.3)
       H    18.80830    4.30838   -7.13786
       O    19.31748    3.48077   -7.10942
      H1    19.01197    2.90231   -7.79317
       H    10.01715   -2.06047   -2.76865
       O    10.92456   -2.09385   -3.10525
      H1    11.40294   -2.25599   -2.27248
       H    15.99671    2.84221    2.74915
       O    16.54709    3.27651    2.07711
      H1    16.84394    2.61614    1.46259
       H    18.54771   -2.77171    0.65667
       O    18.25488   -3.67702    0.51110
      H1    18.29737   -4.27674    1.27887
       H    17.32306   -6.88188   -4.73616
       O    18.04109   -6.44169   -4.32821
      H1    17.71510   -5.72595   -3.85087
       H    11.94823    5.11173   -7.65022
       O    11.31150    4.99653   -6.90761
      H1    11.80482    5.10613   -6.04855
       H    12.99661   -3.32302   -1.30666
       O    12.74432   -2.41077   -1.16907
      H1    11.98949   -2.37079   -0.51819
       H    13.13810    0.20012   -7.15363
       O    13.25908    0.13489   -8.12960
      H1    12.40070    0.02859   -8.51109
       H    14.98337    2.72860   -5.63631
       O    14.65844    2.79520   -4.72804
      H1    14.10885    3.55196   -4.69755
       H    10.63714    4.56592   -2.67525
       O    11.11605    5.37442   -2.63355
      H1    11.83007    5.30980   -1.99068
       H    18.18852    6.86656   -4.53623
       O    17.76839    6.45629   -3.75729
      H1    17.64089    5.51232   -3.90938
       H     9.93069    0.72469   -7.24884
       O     9.93739   -0.02188   -7.97615
      H1     9.41153    0.26053   -8.72452
       H    18.26180    0.96104    0.34606
       O    17.81345    1.75958    0.01421
      H1    18.56828    2.41584   -0.12834
       H    16.11163   -1.49920   -4.24258
       O    16.24517   -0.67740   -3.78668
      H1    15.37157   -0.41385   -3.49353
       H    12.85145   -5.77640   -1.69678
       O    13.59818   -5.26333   -1.31249
      H1    13.88575   -5.64770   -0.50322
       H    13.14501   -3.79377    2.30413
       O    12.67594   -4.34454    2.94179
      H1    13.28657   -4.57454    3.68408
       H    19.16311    1.04711    2.70206
       O    19.61895    0.30284    2.27603
      H1    19.97935   -0.22986    2.95616
       H    19.46506   -1.33460   -8.91420
       O    19.54203   -0.81348   -8.08715
      H1    18.72891   -0.86302   -7.50775
       H    14.68175    0.37889   -1.35423
       O    14.36850    0.82249   -2.16229
      H1    14.61489    1.73482   -1.93389
       H    10.95781   -2.18675    1.46271
       O    10.64675   -2.54284    0.62665
      H1    10.20879   -3.41262    0.80800
       H    15.75724   -3.92388    3.06015
       O    16.07285   -4.54425    3.80090
      H1    16.06553   -4.00238    4.59745
       H     9.62990   -4.65030   -6.55594
       O    10.43599   -5.18604   -6.45539
      H1    10.23087   -5.98120   -6.86631
       H    16.74317   -3.53997    1.06133
       O    15.72863   -3.45200    1.20402
      H1    15.36194   -3.22708    0.30321
       H    13.07560   -7.08798   -5.43307
       O    12.15333   -7.33723   -5.35568
      H1    12.05202   -7.89456   -6.13644
       H    11.58207    2.06936   -1.61075
       O    11.32198    2.78119   -1.04052
      H1    10.41141    3.05021   -1.37886
       H    12.70321    0.37781   -2.98851
       O    11.74757    0.61055   -2.91793
      H1    11.28825   -0.22960   -3.04250
       H    16.12620   -3.87166   -2.72697
       O    16.47551   -4.31552   -3.53082
      H1    15.81650   -4.99707   -3.71798
       H    18.02178   -1.74600  -12.55321
       O    18.05166   -2.25178  -11.67798
      H1    17.14660   -2.30296  -11.34567
       H    15.35683   -8.02476   -4.61030
       O    15.61635   -8.00933   -5.52251
      H1    15.74876   -7.11157   -5.73336
       H    10.29838    3.30399    1.84643
       O    10.44358    2.38718    1.55194
      H1    10.76612    2.51796    0.63816
       H    19.52274    0.89795   -8.91316
       O    19.77283    1.66651   -9.42518
      H1    18.99067    1.71992   -9.98899
       H    16.22660    2.65292   -0.58284
       O    15.59559    3.11235   -1.12090
      H1    16.15445    3.15910   -1.90975
       H    15.98610   -1.95429   -9.63271
       O    15.67815   -1.83470  -10.58394
      H1    14.72418   -1.68570  -10.63189
       H    13.52405    1.70898   -5.09210
       O    12.85181    0.99952   -5.38884
      H1    12.32471    0.84476   -4.59908
       H    16.44492   -2.78304   -0.94499
       O    15.59429   -2.73027   -1.42669
      H1    15.39362   -1.80027   -1.59393
       H    12.62005    4.96205   -3.66127
       O    13.02904    4.84763   -4.50463
      H1    13.80599    5.46770   -4.52229
       H    16.60649    3.45202   -4.31893
       O    17.30981    3.71947   -3.70308
      H1    18.17639    3.59149   -4.11462
       H    12.08657   -4.93855   -7.73948
       O    12.86300   -4.94037   -8.27260
      H1    13.41860   -4.25825   -7.82163
       H    15.87004   -6.58373    0.47723
       O    15.15839   -6.00904    0.90226
      H1    15.44293   -5.10177    0.88797
       H    12.82738   -2.60007   -6.31697
       O    13.54390   -2.67765   -6.91117
      H1    13.74233   -1.84336   -7.41263
       H    13.83334   -1.24638   -0.32569
       O    14.45988   -0.72341    0.19496
      H1    14.23544   -0.95610    1.13913
       H    17.12224    5.85649   -7.10820
       O    18.01889    6.17018   -6.76729
      H1    18.49541    6.63335   -7.49672
       H    11.70085   -3.45673   -8.78296
       O    11.16567   -2.88721   -9.39992
      H1    11.22363   -2.00441   -8.97319
       H    11.50125    1.84666   -5.93995
       O    10.60137    2.13586   -6.18718
      H1    10.66228    3.10391   -6.38820
       H    18.61884   -8.00769   -1.88819
       O    18.98327   -8.43690   -2.65034
      H1    18.71646   -7.77693   -3.36771
       H    18.71604    0.73648   -5.57289
       O    17.98759    0.42240   -6.14524
      H1    17.45741   -0.13493   -5.51563
       H    14.02035   -5.48916   -2.91671
       O    14.04972   -5.59464   -3.87468
      H1    13.26825   -5.14642   -4.24554
       H    19.48786   -4.96036   -8.93958
       O    18.55700   -5.19709   -8.69833
      H1    18.53288   -6.08673   -9.04999
       H    15.22634   -2.93572   -5.95940
       O    16.20300   -2.86236   -5.76678
      H1    16.35539   -3.45387   -4.99758
       H    15.77815    1.98934   -8.36902
       O    16.06969    2.10917   -7.38788
      H1    16.72171    1.41284   -7.15993
       H    16.08897    3.81430   -7.21361
       O    15.80047    4.75001   -7.29246
      H1    14.93246    4.73925   -7.74286
       H    17.76650   -7.20347   -0.28610
       O    17.05711   -7.83004   -0.42658
      H1    17.16606   -8.52526    0.20179
       H    15.89245    6.85611   -3.93539
       O    15.24632    7.53338   -4.33332
      H1    15.45969    8.32788   -3.80415
       H    13.76314    1.79946   -9.43449
       O    14.62196    2.05973   -9.90868
      H1    14.38742    2.93176  -10.22171
       H     8.67971    0.29349   -3.66142
       O     8.41003   -0.54113   -3.12927
      H1     8.48450   -0.27021   -2.19862
       H    11.76629   -3.15231   -4.03075
       O    12.10752   -3.70377   -4.74138
      H1    11.40122   -4.25466   -5.00487
       H     9.08001    2.18913   -4.72925
       O     8.41571    1.84099   -4.06712
      H1     7.61993    2.29770   -4.40752
       H    16.79625   -2.53436   -7.40426
       O    17.09184   -2.54439   -8.29092
      H1    17.57682   -3.43982   -8.36111
       H    16.32907   -4.58852   -6.71240
       O    16.20588   -5.54643   -6.58184
      H1    15.46415   -5.83303   -7.12877
       H    14.20821    4.65113   -0.68699
       O    13.65624    5.40680   -0.85540
      H1    13.17928    5.54650   -0.06110

