180
frame 4 | Written by MDAnalysis XYZWriter (release 2.4.3)
       H   -12.80120  -17.24857   -6.95575
       O   -13.06473  -16.30171   -7.37935
      H1   -12.21286  -15.88824   -7.08171
       H    -7.48290  -15.43663   -1.67503
       O    -6.63761  -15.97595   -1.47775
      H1    -5.81939  -15.38822   -1.36276
       H    -1.55162  -18.43291   -0.81501
       O    -1.47621  -18.92114    0.01583
      H1    -2.24445  -19.48890   -0.04083
       H    -2.31183  -14.25809    2.45931
       O    -2.42901  -13.68039    1.68613
      H1    -3.16794  -13.12146    1.97187
       H    -3.25403  -16.43639   -6.24210
       O    -3.70521  -16.27617   -5.41600
      H1    -2.97546  -16.36377   -4.77523
       H     1.31561  -12.16627   -4.64060
       O     1.45956  -12.56807   -3.74658
      H1     0.60301  -12.98391   -3.62028
       H    -1.06056  -13.43308   -9.33592
       O    -1.14507  -13.18127  -10.27077
      H1    -2.13868  -13.09217  -10.43954
       H    -7.14442   -8.93060   -7.04850
       O    -7.59618   -8.83833   -6.19126
      H1    -7.42445   -7.89973   -6.06795
       H    -6.31199  -11.85079    0.22435
       O    -5.58521  -11.81690   -0.35967
      H1    -5.38137  -10.86866   -0.31696
       H    -7.24452  -12.27247    2.12225
       O    -7.47795  -12.68442    1.25165
      H1    -7.02584  -13.54982    1.43004
       H   -11.12813  -14.13510    0.87577
       O   -11.53411  -13.32888    1.20528
      H1   -11.25306  -13.21794    2.17709
       H    -7.81415  -10.30930   -1.92101
       O    -7.10272  -10.75145   -2.34968
      H1    -6.67969  -11.18668   -1.59635
       H    -2.13135  -10.87723   -8.13980
       O    -1.79653  -10.20677   -8.73477
      H1    -1.25861  -10.69664   -9.39458
       H    -1.76747  -12.62266   -2.39928
       O    -1.81551  -12.46354   -3.33964
      H1    -2.41153  -11.72717   -3.48706
       H   -12.05421  -12.06064   -1.76981
       O   -11.84070  -12.47691   -2.65906
      H1   -12.16420  -13.37465   -2.61846
       H    -0.92455  -15.26440   -3.10122
       O    -1.51104  -15.48349   -3.86539
      H1    -2.18819  -14.80104   -3.73689
       H    -3.61418  -17.71865   -9.32546
       O    -3.85103  -18.44970   -9.91226
      H1    -3.84136  -19.27085   -9.39732
       H    -9.64148  -14.26061   -2.29040
       O    -9.43934  -15.17202   -2.07875
      H1   -10.06689  -15.40826   -1.38840
       H    -4.72151  -17.77751    0.33876
       O    -5.10660  -18.61426   -0.04522
      H1    -5.34904  -18.34306   -0.95795
       H    -5.32565  -15.21597    2.21799
       O    -6.10169  -14.77973    2.67789
      H1    -5.92820  -15.05918    3.56948
       H   -10.68375  -19.10716   -9.73944
       O    -9.80297  -18.61975   -9.67188
      H1   -10.03574  -17.67791   -9.80705
       H     1.18679  -17.79617   -3.37121
       O     1.70435  -17.09319   -2.91228
      H1     2.06441  -16.55231   -3.58794
       H    -9.64656  -11.02070   -7.19171
       O   -10.48716  -10.65560   -6.80884
      H1   -10.81454  -11.44852   -6.18814
       H     2.05056  -14.01907   -7.82940
       O     1.80313  -14.65469   -7.09197
      H1     0.90983  -14.28269   -6.86270
       H    -0.73072  -12.30000   -5.47405
       O    -0.20870  -12.17836   -6.29121
      H1    -0.21730  -11.18657   -6.23463
       H    -6.69939  -15.01955   -7.89586
       O    -7.65656  -14.85284   -7.95349
      H1    -7.80896  -13.91044   -7.82040
       H    -6.68547  -13.95762   -4.91173
       O    -7.11810  -13.15077   -5.18873
      H1    -7.31563  -12.85354   -4.27504
       H    -9.42876  -14.90518   -6.90147
       O   -10.37579  -14.82120   -7.08859
      H1   -10.60865  -14.15457   -6.44639
       H    -6.65614  -18.78930   -3.01789
       O    -5.83796  -18.27053   -2.85494
      H1    -6.21584  -17.40289   -2.60265
       H    -8.86583  -16.59916   -3.56976
       O    -8.98913  -17.15868   -4.33165
      H1    -9.25715  -16.43732   -4.95897
       H   -12.91236  -11.31352   -8.28276
       O   -12.12529  -11.40803   -8.79924
      H1   -11.45296  -11.24689   -8.09186
       H    -1.44183  -12.99490    0.28900
       O    -1.09560  -12.61804   -0.54467
      H1    -0.50164  -13.29799   -0.85768
       H    -4.99339  -11.81559   -9.16987
       O    -5.78387  -11.48568   -8.68469
      H1    -5.43166  -10.69767   -8.32745
       H    -7.67476  -11.96299   -8.13546
       O    -8.37448  -12.35304   -7.56081
      H1    -7.88363  -12.58652   -6.73196
       H    -4.32029  -12.90416  -11.38433
       O    -3.90947  -12.65294  -10.58148
      H1    -3.58818  -11.73292  -10.66792
       H   -11.74613  -12.54411   -4.56335
       O   -11.57196  -12.78972   -5.48716
      H1   -12.38931  -12.49201   -5.93945
       H    -4.75101   -8.20080   -7.84360
       O    -5.42827   -8.89534   -8.05873
      H1    -5.92146   -8.51039   -8.80959
       H    -7.90182  -15.69774  -11.04776
       O    -8.59556  -15.14697  -10.63505
      H1    -8.10564  -14.95169   -9.77582
       H   -11.48034   -8.74076   -5.09559
       O   -10.58541   -8.33490   -5.26452
      H1   -10.09248   -9.01660   -5.75775
       H    -7.63124  -18.47573   -9.69526
       O    -6.83968  -18.68728   -9.20814
      H1    -6.20529  -18.59988   -9.89879
       H   -12.30250  -19.48455   -6.27999
       O   -11.77515  -18.90257   -6.87831
      H1   -10.87139  -19.15580   -6.62566
       H    -4.49560  -13.27674   -1.16395
       O    -4.38709  -14.21057   -1.44822
      H1    -3.49228  -14.44233   -1.18431
       H   -10.72540  -11.38532   -0.06334
       O   -11.40406  -10.70831   -0.20142
      H1   -10.90509  -10.00878   -0.63700
       H    -3.91721  -12.27811   -6.97807
       O    -3.12720  -12.68031   -7.44812
      H1    -3.53798  -13.42723   -7.94797
       H    -7.52245  -10.40766  -11.42732
       O    -7.64113  -10.55048  -10.43691
      H1    -6.74546  -10.83582  -10.18282
       H    -0.82325  -16.86539    0.57713
       O    -0.63940  -15.95557    0.46582
      H1    -0.02085  -15.80990    1.20349
       H    -5.52231  -10.60895   -5.03599
       O    -4.69207  -10.32441   -5.41217
      H1    -4.93648   -9.52680   -5.89254
       H     1.00345  -15.53038   -2.05432
       O     0.42216  -14.86352   -1.65653
      H1     0.03225  -15.35856   -0.91472
       H   -11.37612  -16.54641    0.66905
       O   -10.63230  -15.86457    0.49806
      H1    -9.84297  -16.34736    0.90138
       H    -3.93033  -16.34326    2.14145
       O    -4.11890  -15.87821    1.30940
      H1    -3.32131  -15.26373    1.21413
       H    -4.13121  -19.40845   -5.80842
       O    -4.39187  -19.58816   -6.70201
      H1    -5.15293  -19.03433   -6.73073
       H    -5.70262  -10.00225   -2.74062
       O    -4.73159   -9.94739   -2.65609
      H1    -4.56810  -10.10169   -3.59403
       H    -1.29894  -15.14954   -6.15867
       O    -1.17111  -14.84649   -7.07276
      H1    -1.88047  -14.21474   -7.05786
       H    -7.14743  -18.05839   -7.36064
       O    -7.00240  -18.14841   -6.40150
      H1    -7.41026  -17.31047   -6.05928
       H    -4.26095  -15.71336   -8.21148
       O    -4.80535  -14.96768   -8.53284
      H1    -4.68536  -14.98105   -9.49651
       H    -3.19837  -17.99348   -7.52283
       O    -3.02545  -17.07717   -7.81940
      H1    -2.09521  -17.09169   -7.93568
       H    -1.37696  -18.18725   -2.98255
       O    -0.71009  -18.75998   -2.61348
      H1    -0.42074  -19.27238   -3.40616
       H   -11.07470  -15.91558   -8.65478
       O   -11.01428  -15.97491   -9.62761
      H1   -10.22993  -15.46048   -9.91414
       H    -5.23984  -15.80501   -4.54487
       O    -6.12215  -15.51466   -4.46212
      H1    -6.19528  -15.31409   -3.52125
       H   -13.30706  -16.14741   -3.38630
       O   -12.92634  -16.93908   -3.75998
      H1   -11.98821  -16.78498   -3.73165

