180
frame 12 | Written by MDAnalysis XYZWriter (release 2.4.3)
       H     0.51607    2.69578   13.76602
       O    -0.12216    3.16002   14.37388
      H1    -0.33160    3.99452   13.86803
       H    -5.69672    3.84539   12.13633
       O    -5.03421    3.89606   12.90196
      H1    -5.55020    3.80295   13.72261
       H    -3.80261    4.73733   12.22828
       O    -3.09625    5.27849   11.86142
      H1    -3.37701    6.17602   12.07738
       H    -5.76677    5.22266   17.97653
       O    -5.45229    4.62999   18.68086
      H1    -4.69214    5.20382   19.01728
       H    -2.64749    5.20018   17.79110
       O    -2.23063    4.86968   16.97348
      H1    -1.33778    4.58073   17.23906
       H    -1.00091   -7.15042   19.30316
       O    -0.41350   -6.38889   19.37969
      H1    -0.99108   -5.74513   18.96333
       H    -6.42614   -1.61877    9.53843
       O    -5.90814   -1.39604    8.73245
      H1    -6.57774   -1.41083    8.04234
       H     0.34410    3.21314   17.70734
       O     0.30547    3.99277   17.14821
      H1     0.20068    3.66313   16.28421
       H   -13.27431   -2.82535   16.25946
       O   -13.54755   -2.16099   15.59786
      H1   -12.72703   -1.89799   15.15420
       H    -1.62398    0.52030   15.14604
       O    -1.39522    0.05012   16.00603
      H1    -2.27585    0.29709   16.41459
       H    -4.81440   -5.91488   17.88095
       O    -5.15574   -5.92225   16.98956
      H1    -5.58825   -5.00885   16.87281
       H   -11.86981    2.98031   13.55632
       O   -11.57518    3.91203   13.59707
      H1   -11.94892    4.09228   14.44958
       H    -9.29783    1.88510   16.04668
       O    -9.31712    2.78267   16.40505
      H1    -8.74155    2.76008   17.22101
       H    -6.68478   -0.05680   10.98423
       O    -6.95059   -0.83863   11.50529
      H1    -7.90947   -0.65212   11.49543
       H   -11.64190   -4.18212   17.47676
       O   -12.13711   -3.30725   17.59712
      H1   -13.01716   -3.59415   17.85777
       H    -1.66350   -7.31048   17.06304
       O    -2.08516   -7.88701   17.68575
      H1    -1.61055   -8.72597   17.56003
       H    -1.67515    2.05400   13.88366
       O    -1.83933    1.21256   13.44935
      H1    -2.81170    1.17119   13.53034
       H    -3.80643   -7.63483   18.57224
       O    -4.21024   -7.13778   19.32488
      H1    -5.07702   -7.65892   19.47625
       H   -10.20109   -2.32259   19.84938
       O   -10.91844   -1.70055   19.67346
      H1   -11.37119   -2.22149   18.98700
       H    -8.15418    3.68468   14.97874
       O    -7.24437    4.01824   14.81882
      H1    -6.75313    3.33458   15.34121
       H    -0.05408    0.30267   17.13218
       O     0.77453    0.23037   17.64887
      H1     1.42346    0.74015   17.07914
       H   -12.85058   -0.16424   18.70000
       O   -13.07666    0.73156   18.86112
      H1   -13.98141    0.71612   19.33536
       H    -4.68386   -9.21405   16.46013
       O    -5.38474   -8.71829   16.99723
      H1    -5.45112   -7.77566   16.75441
       H    -1.98898   -1.59357   15.95128
       O    -2.37270   -2.49741   16.16426
      H1    -1.43999   -2.87047   16.36450
       H   -11.60497   -0.56206   13.82734
       O   -11.18717   -1.28744   14.30086
      H1   -10.44096   -1.45335   13.65742
       H    -7.36388   -8.25153   15.70938
       O    -7.89527   -7.49814   15.65677
      H1    -8.19428   -7.32560   16.52858
       H    -8.38449   -2.02594   14.15812
       O    -8.82944   -2.30419   13.37207
      H1    -9.12696   -3.16483   13.65685
       H    -4.05277   -1.78559   19.16179
       O    -3.50726   -1.35134   18.51212
      H1    -3.24743   -2.06980   17.81100
       H    -7.61501    4.16996   12.66250
       O    -7.33610    3.79352   11.82985
      H1    -7.70336    4.45751   11.23239
       H    -7.55886   -4.83499   12.56548
       O    -7.09713   -4.90669   11.72309
      H1    -7.35537   -5.86730   11.59147
       H   -12.72543   -6.41079   19.01606
       O   -12.29809   -5.95780   18.25552
      H1   -12.43630   -6.59600   17.51632
       H    -6.33837   -3.20939   15.20018
       O    -6.25484   -3.64088   16.09212
      H1    -5.96810   -2.96163   16.69571
       H    -8.98005   -0.48595   16.14958
       O    -9.44298    0.13514   15.57500
      H1   -10.15754   -0.43366   15.27558
       H     0.36309    1.49550   19.05693
       O     0.01404    2.23922   19.61623
      H1    -0.96367    2.06071   19.56348
       H    -2.85127   -2.49178   13.04722
       O    -3.10200   -3.17408   13.67010
      H1    -2.75287   -2.89914   14.52692
       H    -6.14588    6.67160   15.60986
       O    -6.70328    6.22119   16.31933
      H1    -6.85315    5.31853   15.87365
       H    -4.78623   -0.15236   13.73175
       O    -4.55432    0.77888   13.70692
      H1    -5.04502    1.15482   12.90842
       H    -8.15405    2.95623   19.71051
       O    -7.71798    2.86960   18.86065
      H1    -7.23349    3.68534   18.82821
       H     0.15655   -4.09180   16.18187
       O    -0.03091   -3.74196   17.05057
      H1     0.79699   -3.27360   17.35699
       H    -3.43100    1.83179   18.06126
       O    -3.56216    1.92343   17.06754
      H1    -2.87187    2.62267   16.88591
       H    -6.52385   -9.15886   20.16755
       O    -6.60336   -8.26114   19.86477
      H1    -6.50038   -8.38790   18.90374
       H    -2.79577    6.23125   15.81524
       O    -2.78487    6.99187   15.27309
      H1    -2.79996    7.73873   15.86982
       H    -6.08286   -0.24784   16.66498
       O    -5.93385   -1.01106   17.23085
      H1    -4.99903   -1.03306   17.43511
       H    -1.13488   -4.05028   14.09512
       O    -0.58894   -4.82156   14.41400
      H1    -1.36330   -5.32946   14.65819
       H    -9.69555   -2.72582   10.16372
       O   -10.20148   -2.13615   10.69532
      H1    -9.59626   -2.10103   11.46764
       H    -9.68395    1.96765   11.08700
       O    -9.17855    1.18020   11.44803
      H1    -8.32057    1.55260   11.55635
       H    -6.06393   -0.00789   18.49688
       O    -6.24369    0.58807   19.27333
      H1    -6.81400    1.29243   18.89097
       H    -2.09801    0.22306   11.39306
       O    -1.75201   -0.51582   10.83722
      H1    -0.81982   -0.65440   11.17724
       H    -4.76515   -2.42401   13.54426
       O    -5.43312   -1.84457   13.81036
      H1    -5.94495   -1.63474   13.02190
       H    -5.41511    1.30072   14.99571
       O    -5.95756    1.54251   15.82723
      H1    -5.11271    1.80490   16.29712
       H    -4.52963   -4.02219   10.26047
       O    -4.15529   -3.34812    9.63600
      H1    -4.87769   -2.66214    9.54041
       H    -8.37486   -7.18975   19.07674
       O    -8.84459   -6.90431   18.31223
      H1    -9.73239   -6.85094   18.69034
       H   -12.63606    3.50369   18.47543
       O   -13.13306    4.07306   19.05480
      H1   -13.08232    3.51568   19.91253
       H    -3.49919   -5.85798   11.43832
       O    -4.22152   -5.82929   10.77595
      H1    -4.95728   -5.65249   11.37039
       H    -5.08187    0.11950    9.41545
       O    -5.09412    0.82863   10.08345
      H1    -5.67971    1.48436    9.71086
       H   -12.85342   -3.63012   13.88773
       O   -12.86165   -4.10551   13.02289
      H1   -13.40898   -4.83191   13.36254
       H    -9.60840   -5.79564   13.85462
       O    -8.82883   -5.19100   13.94617
      H1    -8.25352   -5.84056   14.34170
       H    -7.99031   -3.76288   17.15563
       O    -8.45621   -4.13718   17.96286
      H1    -8.44152   -5.13023   17.77679
       H   -12.02955    1.74416   17.47251
       O   -12.02233    2.60239   16.96893
      H1   -11.05869    2.72021   16.79636
       H    -3.71532   -5.59052   15.64379
       O    -3.14408   -5.57216   14.86844
      H1    -3.50332   -4.83093   14.31688

