180
frame 9 | Written by MDAnalysis XYZWriter (release 2.4.3)
       H    -2.90889    4.30209    5.77513
       O    -3.15706    4.79678    5.01154
      H1    -3.83298    5.34741    5.40458
       H    -5.37039    5.70289   12.13576
       O    -5.06220    6.62644   12.26696
      H1    -5.89817    7.09897   12.04210
       H    -3.29011   14.56226    7.13226
       O    -3.32443   14.56911    6.18399
      H1    -2.39491   14.60676    5.96226
       H    -3.97786    8.66461    1.18483
       O    -3.65495    8.08658    0.39968
      H1    -3.28156    7.33159    0.93961
       H    -3.10186   11.74759   11.62342
       O    -2.28128   11.62613   12.13237
      H1    -2.11434   12.57841   12.44173
       H    -6.78931   14.68054    3.98023
       O    -6.14806   15.12406    4.59513
      H1    -6.38983   16.04159    4.21692
       H    -6.85534    8.94390    7.34909
       O    -6.24623    9.60458    7.00738
      H1    -6.53636   10.30809    7.59668
       H    -1.73785    8.51478    6.52074
       O    -2.18815    8.71970    5.70060
      H1    -1.84942    7.93849    5.20948
       H    -0.85235   10.57448    8.09961
       O    -1.62268   10.73092    8.73047
      H1    -1.22412   10.51142    9.58100
       H    -4.88713    5.88423   10.17136
       O    -4.67600    5.45411    9.32412
      H1    -4.34295    4.61489    9.70186
       H    -4.53253   12.94461    5.66078
       O    -4.89537   12.08899    5.47862
      H1    -5.27851   11.87178    6.32677
       H    -6.40877   16.90646    7.25139
       O    -5.46113   16.95230    7.47573
      H1    -5.15104   16.24551    6.91939
       H    -9.13447   10.47689    9.23094
       O    -8.42628   10.38813    9.97897
      H1    -8.77342    9.70123   10.52123
       H    -9.05263    5.15486    9.22851
       O    -8.73469    5.81608    9.85197
      H1    -9.39213    5.75974   10.55978
       H    -0.77804   10.08030    2.72462
       O    -1.55557   10.55305    3.02935
      H1    -1.40121   10.79841    3.99031
       H     0.18394   12.84885    4.53780
       O     0.34096   12.73783    5.45662
      H1    -0.53195   12.37956    5.75508
       H   -10.60380   13.45571    7.74328
       O    -9.81472   13.76421    8.20165
      H1    -9.20445   14.01396    7.48199
       H    -9.70780    4.08894    7.35022
       O    -9.11953    3.94711    8.13161
      H1    -9.05090    2.94550    8.06171
       H    -7.48253    7.83908   13.17620
       O    -7.80465    7.81649   14.08974
      H1    -7.67863    6.89469   14.38634
       H    -7.43053    4.33770    7.43913
       O    -6.57112    4.25494    6.94393
      H1    -5.97756    4.45915    7.64734
       H   -11.44172    9.92495    8.19262
       O   -10.69017    9.41593    8.48595
      H1   -10.51790    8.90080    7.71382
       H    -6.77633   12.18629    1.82408
       O    -6.67519   11.99111    0.87635
      H1    -5.85721   11.41434    0.87982
       H    -6.16326    5.77248    4.93787
       O    -5.50203    6.24614    5.42583
      H1    -5.31840    7.04854    4.82845
       H    -3.75124    8.72195    4.94023
       O    -4.67096    8.59851    4.74809
      H1    -5.06176    8.52615    5.62345
       H    -3.58863   10.15443    2.51411
       O    -4.46883    9.84396    2.24193
      H1    -4.88914    9.51177    3.04377
       H    -9.94996   10.49845    2.88916
       O    -9.89721   11.13089    2.13618
      H1   -10.78375   10.97595    1.70266
       H    -6.89925   15.28074   10.00842
       O    -5.99884   15.00656    9.65600
      H1    -5.77955   15.85566    9.29889
       H   -11.99762    7.08872   10.49847
       O   -12.37639    7.74198    9.88187
      H1   -11.66800    8.31835    9.55829
       H    -6.24636    9.19938   -0.10315
       O    -7.13100    9.18728   -0.39882
      H1    -7.57008    9.76479    0.21524
       H   -10.84465    5.56753    3.41443
       O   -10.18500    4.96330    3.64888
      H1   -10.28600    4.31876    2.91695
       H    -8.82859    9.69329    4.60875
       O    -9.77968    9.68402    4.36519
      H1   -10.18332   10.40170    4.87268
       H     0.36004    8.42076    7.44677
       O     0.26000    9.34379    7.42105
      H1     0.73176    9.47065    6.54869
       H    -6.53381   10.33172    5.42790
       O    -7.15681   10.33071    4.66245
      H1    -6.81623   11.02194    4.02533
       H    -2.90879    8.08507   12.09043
       O    -2.08083    7.73058   12.38473
      H1    -1.75281    7.36976   11.58986
       H    -7.91294   11.14580   11.52943
       O    -7.96531   11.84340   12.17928
      H1    -7.85790   12.63534   11.62374
       H    -8.65777    5.81182    3.37652
       O    -7.79581    6.17078    3.08067
      H1    -7.18802    5.38967    3.04380
       H    -6.51343   12.92584    8.22731
       O    -6.01919   12.13623    8.08850
      H1    -5.41515   12.28058    8.81776
       H    -4.86545   10.38658   10.89272
       O    -4.89991    9.44752   11.03035
      H1    -4.43104    9.16133   10.26308
       H    -3.79953   12.74476   10.06112
       O    -4.57651   12.25601   10.43905
      H1    -5.07271   12.93859   10.84771
       H    -6.35755   11.99564   14.86393
       O    -6.38472   11.32111   14.23330
      H1    -6.87073   11.63561   13.45586
       H    -1.83237   12.47252    9.04784
       O    -2.31667   13.35275    8.97533
      H1    -1.78630   13.76563    9.71021
       H    -9.70545   12.81462    5.96701
       O   -10.34649   12.29614    5.48833
      H1   -10.54048   12.87978    4.69616
       H    -0.41618    6.54749    4.42831
       O    -1.35781    6.71021    4.28610
      H1    -1.86127    5.95407    4.59016
       H    -6.24223   12.74183    4.28237
       O    -6.82573   12.66050    3.42705
      H1    -7.69990   12.63019    3.86874
       H    -6.66619    6.56729    7.08384
       O    -7.40416    7.05216    7.45716
      H1    -7.71390    6.59995    8.24058
       H    -7.65423   14.74385    5.65892
       O    -8.38277   14.35621    6.14022
      H1    -9.13355   14.98039    6.07583
       H   -10.79268    4.53182    5.32426
       O   -11.00222    4.53284    6.27176
      H1   -11.25480    5.46302    6.38553
       H    -3.05969    9.60268    8.40906
       O    -3.79780    8.94893    8.55669
      H1    -4.39247    9.45798    8.00813
       H    -7.50730    6.13971    1.28533
       O    -7.61613    6.25857    0.32172
      H1    -7.70004    7.19871    0.26181
       H   -10.97813    7.74733    3.10908
       O   -11.76452    7.13539    3.10276
      H1   -12.18511    7.47218    3.94112
       H    -6.68845    8.34050   11.05383
       O    -7.35958    7.79691   11.46968
      H1    -7.72052    7.24451   10.76336
       H    -2.34802   12.36540    2.13657
       O    -2.50722   12.93831    1.40057
      H1    -1.69210   13.52474    1.51227
       H    -3.02913    6.33128    9.01198
       O    -2.11229    6.61326    9.11256
      H1    -2.12085    7.52449    9.01471
       H   -12.71942    9.12158    4.96710
       O   -12.96187    8.23905    5.16125
      H1   -13.93977    8.41991    5.06898
       H   -10.03053    8.24761    5.54908
       O   -10.01554    7.67325    6.29889
      H1    -9.05786    7.47241    6.52202
       H   -10.96444    9.08985   12.28150
       O   -10.30267    9.40175   11.56248
      H1   -10.52706   10.34272   11.55768
       H    -2.89915   11.71008    5.53050
       O    -2.00840   11.35022    5.38678
      H1    -2.23577   10.36990    5.51501
       H   -13.02595   13.49786    6.88166
       O   -12.41361   12.76789    7.11492
      H1   -11.72469   12.75805    6.47091
       H    -6.32399    3.52409    2.03587
       O    -5.90435    4.19815    2.62963
      H1    -4.97553    4.29893    2.32220
       H    -6.56752    3.13685    5.35363
       O    -6.40736    2.56710    4.62710
      H1    -6.19835    3.20101    3.91798

