180
frame 6 | Written by MDAnalysis XYZWriter (release 2.4.3)
       H    -2.99350   -7.82452    0.64407
       O    -3.75278   -8.12471    1.15477
      H1    -3.98634   -7.28332    1.61535
       H     0.15882   -7.66205    2.13399
       O     0.32264   -8.08557    1.26989
      H1     0.78397   -8.88656    1.62178
       H    -5.26204   -7.24303   -2.56719
       O    -5.53987   -7.63905   -1.72365
      H1    -4.88700   -7.70367   -1.02502
       H     1.41965  -11.46089   -6.82400
       O     1.11472  -12.12027   -7.45278
      H1     0.67028  -12.78092   -6.87190
       H    -7.26195   -9.77052    2.04288
       O    -7.78704  -10.05802    1.26465
      H1    -8.07215   -9.30704    0.80348
       H    -1.51945   -8.60160   -2.38910
       O    -0.75317   -9.05996   -2.84218
      H1    -1.11168   -9.27715   -3.75717
       H     0.39923   -7.76830   -3.16755
       O     0.85497   -6.95086   -3.40464
      H1     1.69495   -7.08225   -3.84659
       H     0.27095  -16.69992    2.27027
       O     1.26916  -16.87167    2.35267
      H1     1.70680  -16.05799    2.61163
       H     2.74704  -11.14673   -5.04363
       O     1.79397  -10.86643   -5.14170
      H1     1.28458  -11.50248   -4.64765
       H     2.44920  -14.47449    1.62394
       O     2.76575  -14.53334    2.54186
      H1     3.69677  -14.93145    2.34186
       H    -0.03119   -6.00968   -6.21108
       O    -0.30264   -5.43357   -5.48341
      H1     0.01821   -5.92109   -4.70241
       H     1.24529   -6.16859    3.76726
       O     0.50456   -6.76578    3.76797
      H1     0.21987   -6.93919    4.68778
       H    -1.32844   -4.40381    0.95496
       O    -1.25785   -3.94710    0.07702
      H1    -0.62136   -4.54798   -0.33708
       H     4.76445  -13.41381   -2.53181
       O     4.09357  -12.70510   -2.78951
      H1     3.57115  -13.23805   -3.38035
       H     2.39279  -10.84020    4.08575
       O     2.35496   -9.87198    4.12994
      H1     1.48807   -9.48188    4.37120
       H    -1.10838  -14.52336   -5.65540
       O    -0.79002  -13.58684   -5.80374
      H1    -1.47076  -12.96613   -6.15991
       H    -0.24349  -12.95721   -4.22139
       O     0.59124  -12.86007   -3.70064
      H1     0.37649  -13.15551   -2.80251
       H     1.40118   -4.97237   -1.19410
       O     0.78835   -5.71187   -1.04724
      H1     0.93258   -6.31744   -1.82215
       H     2.24555  -15.36406   -0.49550
       O     1.96285  -14.53795   -0.03133
      H1     2.55091  -13.85161   -0.33323
       H    -3.95191  -10.73956    5.54625
       O    -3.56120   -9.94234    5.12911
      H1    -3.36673  -10.06635    4.18838
       H    -4.18620  -11.05240   -3.45803
       O    -3.82757  -11.45108   -4.31615
      H1    -4.53012  -11.63503   -4.92610
       H     4.75007  -10.42374   -4.70604
       O     4.28037  -11.21834   -5.08384
      H1     4.28286  -11.86568   -4.34326
       H    -5.38472  -12.32498    2.16188
       O    -5.42195  -12.22717    3.12363
      H1    -5.57933  -13.08033    3.51972
       H    -2.41002   -6.69453   -1.32057
       O    -2.07205   -7.52164   -1.02321
      H1    -1.19595   -7.29191   -0.69342
       H    -5.26808  -15.14973   -0.37295
       O    -4.78834  -14.80764   -1.15375
      H1    -3.85895  -15.10680   -1.13783
       H    -6.16148  -17.36883   -4.10561
       O    -5.27811  -17.28841   -3.64807
      H1    -4.82337  -16.50321   -3.95551
       H     2.22764   -8.53884   -6.95871
       O     1.49589   -8.46894   -6.35446
      H1     1.49299   -9.29664   -5.81652
       H    -8.80513   -7.63799   -1.41276
       O    -8.11376   -7.65538   -0.64629
      H1    -7.29567   -7.52452   -1.12073
       H    -8.03051  -10.38530   -4.72462
       O    -7.50139   -9.79532   -4.19678
      H1    -7.01043  -10.34804   -3.62124
       H     0.31182  -10.35689   -1.44632
       O     0.29790  -10.42427   -0.48471
      H1    -0.00627   -9.58455   -0.20221
       H    -1.44650  -15.28514   -0.83097
       O    -1.92677  -16.02226   -0.42579
      H1    -1.62050  -16.68297   -1.02492
       H    -3.70201   -7.06742   -4.07212
       O    -4.52650   -6.60146   -4.12173
      H1    -4.32694   -5.64921   -4.00405
       H    -3.32613   -9.55364    2.00024
       O    -3.06119  -10.40203    2.41663
      H1    -3.91318  -10.84632    2.46291
       H    -1.41573  -11.82247   -8.39301
       O    -2.19844  -11.63609   -7.73059
      H1    -1.98982  -10.83367   -7.18413
       H    -1.66283  -15.85265    1.50530
       O    -1.42945  -16.13857    2.38541
      H1    -1.13254  -15.34817    2.88215
       H    -3.89562  -14.02382   -4.42841
       O    -4.16724  -14.88519   -4.09047
      H1    -4.30202  -14.86947   -3.12636
       H    -7.69575  -12.65010   -2.42831
       O    -6.81095  -12.31024   -2.63542
      H1    -6.23305  -13.04103   -2.41308
       H    -5.40105  -11.28293    0.01937
       O    -5.24207  -12.19841    0.39433
      H1    -5.29218  -12.81126   -0.34968
       H    -0.71686  -10.14750    5.98734
       O    -0.04372  -10.73442    5.61645
      H1     0.63447  -10.67651    6.31313
       H    -0.82407  -13.12613   -0.81153
       O    -0.27679  -13.82665   -1.24546
      H1     0.42231  -14.09891   -0.63096
       H    -6.95136  -16.09451    0.35904
       O    -6.67609  -15.42010    0.94438
      H1    -7.36370  -14.73116    0.94759
       H    -1.85798  -18.27705   -2.90862
       O    -1.57450  -18.13094   -1.98028
      H1    -1.58716  -18.99335   -1.59194
       H     2.76722  -15.30312   -3.64261
       O     2.51840  -14.53170   -4.24379
      H1     1.69789  -14.13237   -3.96533
       H    -3.18793   -5.87769    3.21592
       O    -4.02963   -6.33712    3.34137
      H1    -4.42264   -5.78562    4.01576
       H    -2.47613   -4.27087   -1.08939
       O    -2.89470   -4.97001   -1.67378
      H1    -3.36393   -4.54615   -2.48965
       H    -7.90980  -12.44000    1.64164
       O    -8.42162  -13.21378    1.41247
      H1    -8.74769  -12.90048    0.58495
       H     2.85015   -8.16244    0.24003
       O     2.89774   -7.22252    0.46058
      H1     2.00411   -6.96996    0.67205
       H    -0.05014  -11.60719    4.05156
       O    -0.37041  -11.94783    3.20147
      H1    -1.13141  -11.27594    3.01444
       H     3.54569  -12.56014    5.24668
       O     2.74287  -12.58800    4.72165
      H1     2.87624  -13.21105    4.03224
       H     2.18044  -16.95106    0.56303
       O     2.76623  -17.05387   -0.19464
      H1     2.27135  -17.65584   -0.79701
       H    -0.53782  -13.68308    3.98536
       O    -0.95534  -14.50752    4.37275
      H1    -1.85931  -14.20574    4.47356
       H     1.84838  -11.46372   -0.41334
       O     2.70960  -11.87443   -0.48440
      H1     2.94513  -11.85927   -1.43197
       H    -6.46771  -12.76027   -5.13766
       O    -5.84935  -12.90776   -5.86002
      H1    -6.23449  -12.56747   -6.64299
       H    -5.96865  -10.25636    3.63718
       O    -6.40793   -9.45887    3.42684
      H1    -5.76817   -8.75844    3.27845
       H    -2.24500   -4.15444    2.97458
       O    -1.73344   -4.89713    2.60692
      H1    -1.09496   -5.21731    3.27962
       H    -2.96620  -10.35026   -5.18588
       O    -2.29491   -9.81505   -5.63269
      H1    -2.82381   -9.29694   -6.21545
       H    -4.86981   -9.59643   -1.56782
       O    -4.50537  -10.34648   -2.02742
      H1    -3.77037  -10.68721   -1.47204
       H    -2.79578  -11.99789   -0.09646
       O    -2.15662  -11.83756   -0.73005
      H1    -1.50926  -11.19548   -0.46903
       H     4.87013  -10.03554    1.19524
       O     4.50871  -10.04758    0.31654
      H1     3.90280  -10.78587    0.30482
       H    -4.04815   -4.81461    0.21750
       O    -4.93882   -4.54208    0.53271
      H1    -5.14293   -3.76416    0.01961

