180
frame 6 | Written by MDAnalysis XYZWriter (release 2.4.3)
       H    -3.89538    4.50086    5.26030
       O    -3.78839    4.55587    4.32154
      H1    -4.64904    4.81746    4.08079
       H    -6.66803    2.77204    9.22077
       O    -7.05256    2.48519   10.10032
      H1    -7.93835    2.86333   10.06930
       H   -10.79575   -2.33546   -0.15340
       O   -10.11507   -1.70605   -0.44567
      H1    -9.35980   -2.18453   -0.03183
       H   -13.26269    1.22035    3.66729
       O   -14.22307    1.42749    3.65952
      H1   -14.21342    2.38473    3.57609
       H   -11.26104   -2.07155    8.44609
       O   -11.43900   -2.47353    7.57305
      H1   -10.50719   -2.79102    7.41550
       H    -7.44532    8.30099    8.19206
       O    -7.59927    9.03033    7.55344
      H1    -7.64885    9.86566    8.10670
       H    -3.58694    5.05354    8.03581
       O    -3.47104    4.88637    7.09569
      H1    -2.96389    4.06205    7.05785
       H   -13.59854    3.19644    5.53076
       O   -13.62047    2.67813    6.35028
      H1   -13.27855    1.84284    5.98544
       H   -10.65667   -1.31610   11.01636
       O   -10.83180   -1.23702   10.05462
      H1   -11.67930   -0.82293   10.00390
       H    -4.13538    2.23375   11.81290
       O    -4.49154    2.63248   11.01731
      H1    -5.40287    2.35071   10.96857
       H   -10.19183    4.48903    9.94127
       O    -9.45212    5.16988    9.98174
      H1    -9.11666    4.96485   10.82701
       H   -12.57374    3.57246   10.01701
       O   -11.61553    3.49473    9.71414
      H1   -11.55008    2.67702    9.19217
       H    -8.78574    3.39384    6.77257
       O    -8.33012    2.99144    7.48889
      H1    -8.83519    2.19368    7.64182
       H    -6.06033   -1.97777    2.98725
       O    -5.63993   -1.76324    2.10558
      H1    -6.39184   -2.10291    1.52667
       H    -6.56106    2.95949    7.46223
       O    -5.67473    2.78242    7.82661
      H1    -5.28156    3.64399    7.64864
       H   -11.57342    9.39058    7.69956
       O   -10.89746    9.08099    8.32823
      H1   -10.70370    8.24286    7.87089
       H   -11.46964    0.94626    7.27827
       O   -10.77938    1.49640    7.73845
      H1   -10.88923    2.38353    7.26584
       H    -6.73220    5.67346   -0.56753
       O    -5.83384    5.56144   -0.96257
      H1    -5.38335    6.44043   -0.54784
       H   -11.32377   -1.96175    3.71984
       O   -10.62484   -2.13852    4.36670
      H1   -10.42587   -3.03001    4.16762
       H    -7.58481    5.72691    5.36752
       O    -6.78997    5.36004    5.69171
      H1    -6.17386    6.11056    5.53502
       H    -4.26021    7.55349    5.16314
       O    -5.01040    7.16534    4.74401
      H1    -5.44986    7.93537    4.34604
       H   -11.44170    1.16131    0.29211
       O   -11.21239    0.64529    1.07343
      H1   -10.56929    0.02658    0.71342
       H   -10.85514    6.24489    4.11314
       O   -10.06731    5.69415    4.10554
      H1   -10.02727    5.04101    3.34042
       H    -8.15468    2.40786    4.77475
       O    -8.96154    1.86347    4.83202
      H1    -8.67997    1.02263    5.14856
       H    -9.51947   -1.05799    3.38547
       O    -8.90296   -0.71929    2.67355
      H1    -8.82596   -1.46563    2.03976
       H    -4.94584   -3.29658    2.49528
       O    -4.94416   -4.26796    2.48946
      H1    -4.74211   -4.29404    3.46227
       H    -7.93845   -3.90996    1.14244
       O    -8.14594   -3.07877    0.72647
      H1    -7.49149   -2.91140    0.03518
       H    -8.51196    8.62831    4.73985
       O    -9.45204    8.90724    4.75988
      H1    -9.37994    9.79599    5.17286
       H   -13.07310   -0.38383    5.08092
       O   -12.87903   -0.09058    5.93708
      H1   -12.19284   -0.63834    6.33942
       H    -9.62737    2.56457   12.40811
       O    -9.63528    2.14342   11.51299
      H1   -10.55501    1.84816   11.41516
       H   -12.37053    4.67214    7.54192
       O   -13.03300    5.22106    7.95455
      H1   -13.29071    5.68826    7.04188
       H    -8.63929    6.15894    3.01570
       O    -7.70718    6.16250    2.69099
      H1    -7.35372    5.26255    2.73245
       H    -2.47762   -1.31671    3.37268
       O    -2.11242   -2.07462    3.85551
      H1    -2.09064   -2.83572    3.25457
       H    -1.82550    1.48095    7.76601
       O    -2.12055    2.43011    7.67052
      H1    -1.33224    2.72868    7.17501
       H    -4.83862   -0.80977    6.38675
       O    -5.78209   -0.58221    6.55431
      H1    -5.92261    0.36214    6.30592
       H    -8.76591   -0.72953    9.45705
       O    -7.81876   -0.75608    9.68683
      H1    -7.52260    0.16582    9.79092
       H    -0.91484    4.73504    3.85032
       O    -1.40758    5.51534    3.57144
      H1    -2.32917    5.36860    3.83508
       H    -6.91485    6.09381    7.58252
       O    -7.22278    6.40307    8.41529
      H1    -7.71647    5.60946    8.72352
       H   -11.15800    1.39038    2.72041
       O   -11.37212    2.11653    3.37136
      H1   -10.55525    1.95087    3.91013
       H    -6.83111    2.37070   -1.73246
       O    -7.53828    1.68406   -1.58024
      H1    -7.36628    1.41125   -0.67004
       H    -9.50308    3.68417    1.51842
       O   -10.17661    4.12453    1.99458
      H1   -10.60008    3.36894    2.47980
       H    -4.73311    4.27064   -0.16312
       O    -4.40178    3.67173    0.50002
      H1    -3.53698    4.03901    0.65577
       H    -2.27832    1.24317    3.86168
       O    -3.06808    0.71019    3.58397
      H1    -3.82619    1.05089    4.13519
       H    -8.33018    3.23345   -0.79785
       O    -8.63026    4.01165   -0.31184
      H1    -8.74892    4.73254   -0.96824
       H   -15.25204    4.32461    3.50934
       O   -14.35403    4.44258    3.81679
      H1   -14.04629    5.09866    3.21040
       H   -13.51037   -2.06432    2.87333
       O   -12.83661   -1.33456    3.02596
      H1   -12.88232   -0.83400    2.16397
       H    -7.16143   -2.49038    8.99864
       O    -6.78175   -3.36425    8.74132
      H1    -6.37091   -3.61057    9.57022
       H   -10.81436    4.46416    5.48388
       O   -10.78868    4.47476    6.45249
      H1   -10.65289    5.40670    6.62116
       H    -7.73239    6.61941    1.08637
       O    -7.92939    6.89826    0.18733
      H1    -7.92188    7.86408    0.20945
       H   -11.25633    8.40400    4.25073
       O   -11.82794    7.76838    3.75039
      H1   -12.44657    7.40053    4.41832
       H    -7.85209   -1.82741    4.53532
       O    -6.93895   -2.13992    4.55476
      H1    -6.46994   -1.79444    5.36348
       H   -14.29090    7.04348    5.67440
       O   -13.58222    6.43637    5.46151
      H1   -14.00414    5.80883    4.94549
       H    -9.41637    7.78961    6.26608
       O    -9.74492    7.10353    6.84893
      H1    -9.04256    7.10550    7.50584
       H    -6.61459    0.71915    1.15310
       O    -7.52565    1.11228    1.18606
      H1    -7.91708    0.43449    1.81430
       H   -10.93662    4.63261    0.51849
       O   -11.43104    5.16645   -0.09819
      H1   -11.52264    4.55230   -0.80258
       H    -4.11729    0.88803    1.62633
       O    -4.47801    0.92896    0.74458
      H1    -4.44601    1.88606    0.71242
       H    -7.81175   -0.53127    7.07176
       O    -8.67033   -0.29961    6.69094
      H1    -9.00059    0.39997    7.30110
       H    -4.36250    1.26318    9.95693
       O    -4.37364    0.40872    9.51809
      H1    -4.86617    0.49575    8.72205
       H    -6.80770    2.81211    2.23963
       O    -6.25745    3.47261    2.66932
      H1    -5.52923    3.68665    2.04306
       H    -5.58624    2.53001    5.42310
       O    -5.50349    1.88343    4.69061
      H1    -5.65275    2.49195    3.91428

