180
frame 8 | Written by MDAnalysis XYZWriter (release 2.4.3)
       H    -4.85950   -6.94998   -9.65521
       O    -5.81231   -7.03318   -9.66656
      H1    -6.00980   -6.25176   -9.10683
       H    -1.68699    0.14616  -13.43173
       O    -2.08638    0.46028  -12.60293
      H1    -2.83308    0.94670  -12.98326
       H    -2.28787   -2.69217  -12.74093
       O    -2.93955   -2.23248  -13.26672
      H1    -2.74374   -1.30084  -13.02778
       H    -3.98080    0.91588  -17.28175
       O    -3.55748    0.76147  -16.42359
      H1    -3.47955   -0.16792  -16.25014
       H    -8.47608   -0.15652  -18.11881
       O    -8.74195   -0.13599  -17.21016
      H1    -8.91400   -1.01850  -16.88667
       H    -7.20728    1.64938   -7.67872
       O    -7.17616    0.94466   -6.99224
      H1    -8.11624    0.90673   -6.66040
       H    -6.30003   -1.21743   -9.33310
       O    -7.18826   -0.99303   -9.06065
      H1    -7.13853   -0.28694   -8.41833
       H    -3.76816    4.97050  -12.85287
       O    -4.06717    4.78006  -13.72416
      H1    -4.93755    5.11195  -13.77359
       H    -6.50598    1.87415  -15.28022
       O    -7.21679    1.27386  -15.05078
      H1    -7.70853    1.06369  -15.89538
       H    -6.38739    5.09087  -15.81366
       O    -6.47588    5.85973  -15.20285
      H1    -7.01267    5.56535  -14.45617
       H    -9.48938   -6.54320   -9.41637
       O    -9.70049   -5.63205   -9.69078
      H1   -10.62078   -5.64772   -9.96141
       H    -6.25191   -1.33935  -13.18298
       O    -6.63944   -1.42727  -14.06774
      H1    -6.68313   -0.45908  -14.26443
       H    -7.46492   -8.28956  -13.96924
       O    -7.00547   -8.80497  -14.63453
      H1    -6.07392   -8.58639  -14.41532
       H    -5.69646   -2.26361  -15.51027
       O    -5.08636   -2.93979  -15.89477
      H1    -5.39881   -2.96436  -16.80821
       H   -10.06915   -6.73208  -14.46321
       O   -10.92041   -7.04840  -14.04615
      H1   -11.24302   -7.69663  -14.76173
       H    -9.63997   -6.03523  -12.42446
       O    -9.07205   -5.25940  -12.19299
      H1    -9.05744   -5.26505  -11.17593
       H    -1.34141    1.60688  -11.14918
       O    -0.94138    2.16540  -10.46803
      H1    -1.08634    3.11795  -10.75019
       H    -7.01873   -5.64882  -11.99060
       O    -6.03647   -5.60930  -11.92260
      H1    -5.95540   -6.06841  -11.05933
       H   -12.19009   -3.55035  -11.30908
       O   -12.58681   -3.47202  -12.20744
      H1   -11.85709   -3.83885  -12.77882
       H    -1.76334   -4.44201  -10.19508
       O    -2.09180   -5.00501   -9.45848
      H1    -2.59887   -4.34934   -8.88279
       H    -7.93428   -0.25628  -10.51449
       O    -8.40433    0.31722  -11.13828
      H1    -8.89194   -0.28090  -11.72201
       H    -8.72069   -3.20297  -12.35465
       O    -8.89760   -2.46328  -12.93616
      H1    -7.99903   -2.10535  -13.16607
       H    -8.52379    4.08453  -13.30852
       O    -8.01692    4.88354  -13.19948
      H1    -8.67157    5.64321  -13.25110
       H    -2.47245   -2.29942  -17.22396
       O    -2.16124   -1.70715  -16.45423
      H1    -2.72077   -2.22167  -15.78591
       H   -12.11213    0.74794  -13.00071
       O   -12.79740    0.88759  -12.36528
      H1   -12.91817    1.83080  -12.22181
       H    -8.99636   -5.10276  -15.72827
       O    -8.87511   -6.09339  -15.64279
      H1    -7.99993   -6.11202  -16.13556
       H    -4.49571    1.31715  -14.70537
       O    -4.66147    1.73821  -13.86721
      H1    -4.54093    2.67131  -14.09845
       H    -2.62869   -7.43044  -13.87369
       O    -3.10343   -6.78572  -13.42687
      H1    -3.95800   -6.81020  -13.88751
       H    -0.19686   -3.06036  -11.45028
       O    -0.97860   -3.58184  -11.73473
      H1    -0.60152   -4.42374  -12.02373
       H    -1.19362   -2.13522   -7.63564
       O    -0.95626   -2.58734   -8.48576
      H1    -0.73069   -1.79220   -9.00091
       H    -2.42253   -5.11246  -15.16068
       O    -3.16761   -5.02448  -15.77014
      H1    -3.62401   -4.20339  -15.52239
       H    -8.38986   -2.58782   -8.61648
       O    -8.91098   -3.32851   -8.22287
      H1    -8.99517   -3.94461   -8.93823
       H    -2.42947   -0.75757  -18.43138
       O    -2.30114   -0.56775  -19.36173
      H1    -3.10546   -0.94390  -19.71705
       H    -3.52516   -0.27582   -7.02622
       O    -3.57853   -0.60036   -6.12488
      H1    -4.05018    0.15993   -5.74981
       H    -4.66150   -2.23654  -10.72489
       O    -4.36671   -1.86811   -9.84164
      H1    -4.63391   -0.97664   -9.81248
       H    -9.06893    2.11425  -12.80339
       O    -9.18278    2.59646  -13.64780
      H1    -8.54059    2.14661  -14.23785
       H   -12.06631    0.79318  -17.11783
       O   -11.27980    1.41873  -17.29775
      H1   -10.84131    0.75365  -17.89310
       H   -10.07748    2.42434   -9.16958
       O    -9.98966    2.61088  -10.09906
      H1    -9.61134    1.79847  -10.47473
       H    -7.11311   -4.32334   -7.79392
       O    -6.43501   -4.92911   -8.05539
      H1    -5.60979   -4.39397   -7.98125
       H    -8.36817   -3.94247  -17.96350
       O    -9.11672   -4.31081  -18.46446
      H1    -8.73892   -4.96111  -19.08991
       H    -7.03575    3.46323  -17.17674
       O    -6.07735    3.54119  -16.96940
      H1    -5.70782    4.30026  -17.46434
       H    -6.53405    5.43922  -12.07379
       O    -5.84476    5.90919  -11.61222
      H1    -6.12804    6.80896  -11.77708
       H   -11.16978    0.82041  -15.28815
       O   -10.87479    0.71442  -14.32962
      H1   -10.21498    1.39869  -14.27761
       H    -9.62224    2.51051  -16.98999
       O    -8.85408    3.01256  -17.27418
      H1    -9.19470    3.93109  -17.30669
       H    -6.92496    3.67591   -8.83930
       O    -7.20784    2.71401   -8.96305
      H1    -8.04646    2.74955   -9.45177
       H   -12.62420   -3.13845  -14.45714
       O   -12.30548   -2.97246  -15.36941
      H1   -12.69068   -3.82407  -15.72988
       H   -10.25106   -3.10844  -15.56755
       O    -9.27503   -3.09241  -15.63288
      H1    -9.12656   -2.81265  -14.72216
       H    -2.25474   -4.40043  -17.62549
       O    -2.47084   -3.75563  -18.32717
      H1    -2.25765   -4.25981  -19.14104
       H    -3.31266   -7.12467  -11.78970
       O    -3.45162   -7.46578  -10.82532
      H1    -2.86106   -6.88250  -10.26268
       H    -0.39225    3.77846  -14.24017
       O    -0.60320    3.15005  -13.53805
      H1    -1.35617    2.65391  -13.77631
       H    -2.50881    0.26737   -8.75657
       O    -3.30343    0.77356   -8.73924
      H1    -3.41059    0.94495   -9.69634
       H    -4.74562   -2.79486  -12.71908
       O    -5.42735   -2.87129  -12.06006
      H1    -5.55491   -3.87418  -12.14260
       H    -1.63860    3.61967  -16.46747
       O    -1.25517    2.69566  -16.72388
      H1    -2.01952    2.11456  -16.74425
       H    -4.04576   -3.09850   -8.38320
       O    -4.32040   -3.59112   -7.61911
      H1    -3.61799   -3.31374   -7.00401
       H    -5.66079   -4.34130  -18.84415
       O    -5.32291   -3.46813  -18.61159
      H1    -4.39040   -3.72305  -18.40073
       H    -5.48881    1.64421  -11.54283
       O    -5.35801    1.51623  -10.60897
      H1    -6.08306    2.04803  -10.26661
       H     0.06829    0.83271  -15.03164
       O    -0.36237    0.01153  -14.87206
      H1    -0.70612   -0.37378  -15.68493
       H    -6.22276   -5.94955  -16.59072
       O    -6.89482   -5.98634  -17.37838
      H1    -6.95486   -6.89305  -17.69363
       H    -5.26671    2.45746  -18.12468
       O    -4.60823    1.90584  -18.58624
      H1    -5.06805    1.88533  -19.47137
       H    -4.73045   -5.68578  -15.01732
       O    -5.63892   -6.13344  -15.03698
      H1    -5.89051   -5.80492  -14.11884

