180
frame 3 | Written by MDAnalysis XYZWriter (release 2.4.3)
       H   -12.80590  -16.78599   -7.27136
       O   -13.25986  -15.98319   -7.29695
      H1   -12.83013  -15.53403   -6.59258
       H   -16.85436   -7.60427   -2.59148
       O   -16.65324   -7.06265   -3.42276
      H1   -16.32105   -7.77093   -3.97963
       H   -17.85330   -8.99193  -13.85042
       O   -18.48869   -8.19247  -13.90350
      H1   -17.93526   -7.49468  -14.24045
       H   -14.99666  -13.50903   -8.40552
       O   -15.76228  -13.45023   -7.82835
      H1   -16.00078  -14.39796   -7.78172
       H   -12.71212  -14.92778  -13.43636
       O   -12.15419  -15.47971  -13.97218
      H1   -12.54192  -16.36370  -13.74974
       H   -11.98165   -9.59557  -10.77670
       O   -12.35315   -9.40827  -11.69991
      H1   -12.83412  -10.23222  -11.73695
       H    -9.95316   -8.05875   -9.68503
       O   -10.89401   -7.84627   -9.40736
      H1   -11.17346   -7.40015  -10.18686
       H   -12.44529  -12.65548   -8.95218
       O   -13.05741  -13.34923   -8.95721
      H1   -12.53727  -14.21494   -8.91171
       H   -11.60875  -13.00712   -2.83688
       O   -12.30769  -13.31495   -3.48249
      H1   -12.64889  -14.11712   -3.01287
       H   -10.35160   -7.30459   -7.79250
       O   -10.34667   -6.65992   -7.01007
      H1   -10.26436   -7.28318   -6.26671
       H   -16.57885   -7.63996   -9.27527
       O   -16.40484   -7.92983  -10.23014
      H1   -15.80054   -8.62803  -10.06635
       H   -10.34683  -18.24542   -9.84248
       O    -9.68454  -17.50350   -9.92823
      H1   -10.14801  -16.71860   -9.56024
       H   -18.22006  -13.48649   -1.30304
       O   -17.50898  -13.39286   -0.61759
      H1   -18.11009  -13.50883    0.13699
       H    -9.04142  -10.22605   -7.02331
       O   -10.00236  -10.21195   -6.93238
      H1   -10.15165  -11.12448   -6.66228
       H   -16.91283   -6.65155   -7.41537
       O   -16.94574   -7.60185   -7.46295
      H1   -17.92258   -7.72701   -7.35231
       H   -14.20006  -17.59070  -13.53890
       O   -13.32190  -17.78089  -13.16797
      H1   -13.50900  -17.45355  -12.19632
       H   -13.37964   -8.47046   -3.79816
       O   -13.29158   -8.67068   -4.73930
      H1   -14.16588   -9.09328   -4.88149
       H   -16.76016  -13.34996  -13.68946
       O   -16.36401  -13.43131  -12.84774
      H1   -15.50265  -13.60493  -13.22904
       H    -8.86936  -15.03732   -6.67591
       O    -9.75796  -15.06007   -6.29129
      H1    -9.95323  -14.09062   -6.38366
       H   -18.86890  -14.44382   -4.26780
       O   -18.38608  -13.93694   -3.57058
      H1   -18.79748  -13.09772   -3.61416
       H   -11.21960  -11.72912  -12.57885
       O   -10.66718  -10.99198  -12.95127
      H1   -11.11918  -10.23913  -12.46532
       H   -15.84426   -9.44963  -12.90306
       O   -15.16053   -9.13585  -13.46357
      H1   -14.54883   -8.81364  -12.82735
       H    -9.63372  -15.26611   -3.25650
       O   -10.09952  -15.95776   -3.79002
      H1   -10.02274  -15.57980   -4.66637
       H   -14.54290  -10.28935   -9.85241
       O   -15.10092  -10.23256   -9.03699
      H1   -14.79366   -9.43034   -8.62890
       H   -12.45459  -10.46925   -8.58043
       O   -11.82477  -10.59956   -9.33577
      H1   -11.02107  -10.47517   -8.85544
       H   -14.09964  -12.39891  -11.90842
       O   -14.06464  -11.44155  -12.01350
      H1   -14.58837  -11.28592  -12.84840
       H   -19.16714  -15.78159   -6.61903
       O   -18.76974  -14.83006   -6.58628
      H1   -17.84481  -15.13219   -6.36239
       H   -14.41809  -13.24422    0.16376
       O   -14.48040  -12.94845   -0.72557
      H1   -15.37988  -12.61050   -0.76257
       H   -17.92943   -8.89115  -10.21082
       O   -18.49659   -9.67125  -10.24706
      H1   -19.31019   -9.23892  -10.05897
       H   -11.37682  -13.00350   -5.22200
       O   -11.26443  -12.72017   -6.13442
      H1   -12.12430  -12.42188   -6.41880
       H   -18.47915  -13.85552   -8.43177
       O   -18.29757  -13.57988   -9.37140
      H1   -17.59921  -12.96760   -9.28728
       H   -11.97284  -10.45339  -14.06454
       O   -12.25395  -10.09349  -14.89570
      H1   -11.42715  -10.06715  -15.38843
       H   -17.28108  -16.81072   -2.55423
       O   -18.01153  -17.38942   -2.93693
      H1   -17.69235  -18.22991   -2.65557
       H   -11.37802   -8.72437   -4.68513
       O   -10.54553   -8.24604   -4.56475
      H1    -9.88445   -8.90979   -4.92518
       H   -12.92619  -13.58811  -11.59134
       O   -13.57342  -14.06565  -12.18464
      H1   -13.88835  -14.65244  -11.50232
       H   -12.51694  -18.94125   -6.65460
       O   -11.84103  -18.41876   -7.05673
      H1   -11.06941  -18.69983   -6.54927
       H   -10.39721  -11.88030   -0.58299
       O   -10.58430  -11.95575   -1.52285
      H1   -10.91685  -11.06854   -1.69627
       H   -19.01362  -18.25708   -9.10882
       O   -18.62448  -18.90423   -8.44692
      H1   -18.74971  -18.40762   -7.60774
       H   -15.50376  -16.97293  -15.50134
       O   -15.49296  -17.05465  -14.55081
      H1   -15.99624  -17.83997  -14.31839
       H   -14.75215  -14.69461   -3.21151
       O   -14.25083  -14.99349   -2.45594
      H1   -14.27619  -14.19362   -1.88501
       H   -15.36964  -15.82955   -1.44620
       O   -16.13836  -16.43671   -1.24364
      H1   -16.76250  -15.79643   -0.88377
       H   -10.09578  -12.88718  -11.48568
       O   -10.90924  -13.39162  -11.34662
      H1   -10.75370  -14.22708  -11.81635
       H   -16.96806  -11.82231  -12.45132
       O   -17.24734  -10.88394  -12.46246
      H1   -17.73453  -10.71840  -11.61483
       H   -14.98581   -5.75586   -5.31219
       O   -14.51612   -5.17206   -4.73829
      H1   -13.57350   -5.12465   -5.11122
       H   -17.13111  -15.26809  -11.92916
       O   -17.71244  -15.59558  -11.24688
      H1   -17.81305  -14.89324  -10.58479
       H   -13.18746   -8.46014   -6.88232
       O   -13.35898   -8.13836   -7.77516
      H1   -12.49665   -8.03567   -8.19536
       H   -14.81215  -16.35593  -10.26204
       O   -13.94111  -16.44849  -10.69524
      H1   -13.42129  -15.98682  -10.02152
       H   -13.56971  -18.58761   -3.28054
       O   -13.85505  -19.40126   -2.79264
      H1   -14.77374  -19.43060   -3.15088
       H   -14.79456  -12.35625   -4.58392
       O   -14.69769  -11.43731   -4.33233
      H1   -13.88683  -11.43772   -3.80355
       H   -14.25032  -11.81862   -7.51978
       O   -13.61660  -11.44437   -6.88293
      H1   -14.03472  -11.37895   -6.01559
       H   -18.05333  -11.56960   -6.85837
       O   -17.35281  -10.92396   -6.73798
      H1   -17.24392  -10.67433   -7.66229
       H   -16.93163  -17.92867   -9.15947
       O   -16.39982  -17.26280   -9.58393
      H1   -17.07659  -16.88709  -10.21072
       H   -14.09551   -5.74097   -9.95910
       O   -13.84037   -5.11630   -9.32706
      H1   -13.20269   -5.63541   -8.80635
       H   -15.13801  -16.23220   -7.09453
       O   -16.07853  -16.21442   -7.19349
      H1   -16.06671  -16.69772   -8.05358
       H   -16.26648   -9.85391   -5.38849
       O   -15.96599   -8.97633   -5.27535
      H1   -16.39388   -8.60272   -6.10617
       H   -17.94860  -17.76078   -4.83508
       O   -17.93546  -17.92685   -5.79952
      H1   -17.26017  -17.31052   -6.12782
       H   -15.32750   -7.01586  -11.28552
       O   -14.53691   -6.52619  -11.56415
      H1   -14.93700   -5.73009  -11.98226
       H   -10.54046  -14.79548   -8.38000
       O   -11.00174  -15.11792   -9.13942
      H1   -10.88073  -14.43517   -9.84325
       H   -13.70251  -16.47576   -3.23853
       O   -13.23185  -16.98904   -3.95957
      H1   -12.30312  -16.68778   -3.81800
       H   -16.81445  -13.89016   -4.42988
       O   -16.00688  -14.29350   -4.77312
      H1   -15.88002  -14.18429   -5.71883

