180
frame 0 | Written by MDAnalysis XYZWriter (release 2.4.3)
       H   -14.96674   14.72064    4.70422
       O   -14.19833   15.09385    5.18236
      H1   -13.61365   15.04607    4.43560
       H   -19.42893   12.70196    2.43545
       O   -19.82292   12.09011    3.12815
      H1   -19.16951   11.39885    3.10935
       H   -17.91946    5.44898   10.20193
       O   -17.70844    6.16031    9.55639
      H1   -17.40468    5.75695    8.76130
       H   -17.62354   15.59942    3.72825
       O   -17.53702   15.32737    2.78191
      H1   -18.44940   15.38987    2.53035
       H   -18.91433    3.49901   11.79750
       O   -18.39321    3.71180   10.99568
      H1   -17.67299    3.04093   11.05099
       H   -15.03272    7.83112   10.11821
       O   -15.32027    6.97389   10.60490
      H1   -16.20129    6.85557   10.22850
       H   -13.38093    9.00154   12.63864
       O   -13.48951    9.96892   12.64331
      H1   -12.59424   10.16909   12.96753
       H   -14.32874   10.53105    6.78345
       O   -15.10834   10.42896    7.32771
      H1   -14.73053    9.72005    7.86331
       H   -15.30672    7.55780   13.44503
       O   -14.59775    6.96802   13.12815
      H1   -14.83044    7.01679   12.24455
       H   -18.35584    9.97506    6.95293
       O   -17.82729   10.76424    7.14318
      H1   -16.98132   10.44573    7.36491
       H   -14.96307   13.10352    2.99257
       O   -15.72201   13.43214    3.52762
      H1   -16.15552   13.84888    2.73624
       H   -15.22265    9.70481   14.17291
       O   -15.98662    9.09711   14.08885
      H1   -16.43836    9.57638   13.35763
       H   -12.25719   11.10556    9.30990
       O   -11.72087   10.39764    8.89068
      H1   -12.03871   10.21324    8.00195
       H   -15.20633    7.73155    4.59965
       O   -15.36365    7.30440    5.44956
      H1   -14.81173    7.86836    5.98774
       H   -11.55131    7.63707   10.75723
       O   -11.44669    8.49601   11.26198
      H1   -11.31427    9.13799   10.52940
       H   -18.20196    7.32254   14.17541
       O   -18.94403    7.94022   14.24486
      H1   -19.69647    7.36394   14.00935
       H   -17.48950    9.99881    3.57693
       O   -18.27763    9.77620    3.04949
      H1   -17.89620    9.34425    2.28587
       H   -18.78913   10.57397    9.74346
       O   -18.54961    9.64669    9.94299
      H1   -17.72820    9.65991    9.42764
       H   -19.32108    7.27446    4.44422
       O   -18.83786    6.53506    4.91256
      H1   -19.61293    5.94433    5.07234
       H   -17.23046    4.49363   14.34467
       O   -18.07350    4.81159   14.69538
      H1   -17.91771    5.36950   15.51478
       H   -11.48436    6.56513    8.66416
       O   -12.36803    6.77173    9.19409
      H1   -12.74313    5.85424    9.12866
       H   -19.21442   12.33611    0.00917
       O   -18.71948   12.92007    0.59107
      H1   -17.77406   12.67820    0.28886
       H   -18.29870    9.94672   11.84377
       O   -18.41372   10.07888   12.85926
      H1   -18.80677    9.21198   13.12796
       H   -18.59109   16.70118    8.62009
       O   -18.81283   17.52529    9.03674
      H1   -18.70963   17.40491    9.98784
       H   -17.33592    3.01965    2.13654
       O   -17.63056    3.42354    1.28655
      H1   -17.65498    2.66599    0.65770
       H   -15.68974    2.68453   12.48609
       O   -15.72687    1.98884   11.80147
      H1   -16.32953    1.32495   12.22001
       H   -15.77365    2.25293    8.44135
       O   -16.23752    1.51094    8.06423
      H1   -16.71218    1.96601    7.31223
       H   -12.37600   11.78711    6.11440
       O   -12.66625   10.84896    6.25821
      H1   -12.57792   10.44164    5.35698
       H   -16.10937    4.29857    1.15240
       O   -15.13989    4.23632    1.04830
      H1   -14.88890    5.17726    1.08727
       H   -18.67553    0.77261    5.12153
       O   -18.60965    0.85209    4.17441
      H1   -17.63697    0.82321    4.03854
       H   -15.24370    5.12521   13.23906
       O   -15.68214    4.28444   13.48050
      H1   -15.23244    4.08483   14.34605
       H   -15.65121    5.83058    6.48042
       O   -16.04713    5.53064    7.32250
      H1   -15.23315    5.27792    7.76870
       H   -15.42413   12.10919   12.71260
       O   -15.08470   12.33842   13.58449
      H1   -15.90981   12.22941   14.06668
       H   -13.00636   10.00434    2.93468
       O   -12.98313    9.41440    3.68648
      H1   -12.54616    8.64223    3.24295
       H   -15.43777   11.18873    1.42301
       O   -15.51176   10.25242    1.63068
      H1   -15.77246   10.30628    2.57613
       H   -15.92775    4.00363    3.73784
       O   -14.98584    3.74051    3.62183
      H1   -14.86744    3.84131    2.64830
       H   -17.74092    8.18223   -0.22359
       O   -17.74928    9.17269   -0.23360
      H1   -17.08928    9.35492    0.42164
       H   -16.57801    6.71812    3.46068
       O   -16.13241    7.22784    2.78433
      H1   -16.56758    7.00585    1.99653
       H   -18.29246    0.85190   10.07344
       O   -18.19848   -0.06358    9.82334
      H1   -17.44145   -0.07377    9.13161
       H   -17.01910    5.84543   -0.48345
       O   -17.48143    6.27564    0.26440
      H1   -18.29097    5.73945    0.21213
       H   -18.25165   15.12035   10.89639
       O   -18.47451   14.17831   10.99604
      H1   -19.43129   14.23661   10.98400
       H    -9.79920    7.01873    5.00755
       O   -10.57370    6.45706    4.85330
      H1   -11.17748    6.58977    5.59162
       H   -13.17584    4.76543    7.17497
       O   -13.48287    4.64387    8.09501
      H1   -12.91420    3.84729    8.26489
       H   -16.86562   12.71282   11.18172
       O   -15.98111   12.43013   10.94546
      H1   -15.69746   13.32840   10.63325
       H   -14.06043    6.27022    5.29704
       O   -13.54782    5.41503    5.37742
      H1   -13.88241    4.89555    4.61236
       H   -17.89226   11.34030   14.00810
       O   -17.63170   12.08912   14.69140
      H1   -18.24880   12.82508   14.57154
       H   -19.74961   13.27458   13.89921
       O   -19.66365   13.96482   14.56634
      H1   -19.00751   14.59291   14.27891
       H   -16.77981    4.04029    6.76925
       O   -17.35464    3.26718    6.51442
      H1   -18.05343    3.41811    7.10532
       H   -19.36950    8.27614    7.90814
       O   -19.29099    8.65308    6.99304
      H1   -19.20422    7.80605    6.49730
       H   -13.55491   11.08406   11.50595
       O   -13.43679   11.64043   10.68109
      H1   -14.28315   12.02618   10.57823
       H   -18.63319   12.86405    9.46615
       O   -19.09526   12.07972    9.09487
      H1   -18.52734   11.74406    8.39069
       H   -19.27398    3.97554   13.69881
       O   -19.83340    3.31477   13.20145
      H1   -19.47562    2.47647   13.55781
       H   -19.66383    4.58913    7.93930
       O   -19.36894    3.68204    8.05227
      H1   -18.76142    3.77677    8.82653
       H   -12.74995   13.67593    5.87761
       O   -12.09796   13.39504    6.55377
      H1   -11.28115   13.30720    6.08999
       H   -13.52314    9.79353    9.71061
       O   -14.07653    9.02221    9.42107
      H1   -13.30244    8.37764    9.19675
       H   -14.06520   14.45230   11.48253
       O   -14.56074   14.49601   10.70245
      H1   -15.24328   15.07950   10.95822
       H   -17.06064    8.82976   15.78307
       O   -17.43317    8.69807   16.65260
      H1   -16.75581    9.07814   17.21516
       H   -17.67973    3.69561    4.82392
       O   -17.50361    4.06465    3.88756
      H1   -17.82462    5.03421    3.93957
       H   -16.12553   11.83356    4.42697
       O   -16.06780   10.88150    4.39896
      H1   -15.69639   10.72877    5.27367
       H   -14.88660    1.17184    4.86596
       O   -15.63647    0.70550    5.31523
      H1   -15.58018    0.88722    6.25808

