180
frame 2 | Written by MDAnalysis XYZWriter (release 2.4.3)
       H    -1.22947    1.32171   14.13006
       O    -1.54843    2.16297   14.45288
      H1    -1.03526    2.81933   13.99045
       H    -4.93435    5.13213   16.56645
       O    -4.89862    5.32223   17.51751
      H1    -4.07646    4.88912   17.85362
       H    -1.85572    5.11153   18.67916
       O    -1.89127    5.10425   17.72808
      H1    -1.33025    4.35912   17.47908
       H    -2.97809   -3.27120    9.78161
       O    -3.94496   -3.36737    9.82675
      H1    -3.97512   -3.25352    8.87506
       H     0.38012    3.60146   16.25718
       O    -0.34295    3.18414   16.73926
      H1    -0.66589    2.65331   15.96526
       H     2.56687   -1.41565   14.65489
       O     3.19369   -0.64044   14.68984
      H1     2.67653   -0.24940   15.41151
       H    -1.35233    3.90395   10.01381
       O    -1.16003    3.54094    9.13618
      H1    -1.82790    4.07697    8.68949
       H    -1.94783    0.22231   16.50224
       O    -1.36234   -0.43781   16.90301
      H1    -0.97130   -0.00935   17.68721
       H    -6.47170   -5.33673   16.89620
       O    -6.31702   -5.02402   16.02767
      H1    -7.24053   -4.77256   15.90736
       H     1.63747   -1.31488   17.51343
       O     1.24939   -2.13089   17.11640
      H1     1.68823   -2.80350   17.63779
       H   -10.52635    2.54944   16.31345
       O   -10.60996    3.43910   15.90067
      H1   -10.55772    4.01067   16.65695
       H    -1.98274   -4.45363   11.68694
       O    -1.23729   -3.83607   11.52139
      H1    -0.92924   -4.38179   10.72457
       H    -5.26698   -3.05446   12.16567
       O    -5.87787   -2.32932   12.47406
      H1    -5.59587   -1.47086   12.05589
       H    -1.00531   -0.56100    7.83605
       O    -1.34332   -1.21354    8.50978
      H1    -1.56410   -0.60260    9.22584
       H     1.37584    0.12417   11.41317
       O     2.02746   -0.65843   11.36439
      H1     1.63196   -1.26622   10.66646
       H    -3.87634    2.95465   13.20296
       O    -4.56621    2.27858   13.55415
      H1    -4.03937    1.50187   13.74568
       H    -6.30950    3.57676   10.80656
       O    -5.71905    3.04096   10.23832
      H1    -6.39713    2.50122    9.77570
       H    -8.01863   -4.47257   18.92536
       O    -7.08207   -4.69991   18.87070
      H1    -6.83903   -4.89390   19.76772
       H    -8.91500    2.98940   14.94754
       O    -8.26808    2.81886   14.24723
      H1    -7.78698    2.08699   14.71599
       H    -2.72956   -1.66745   17.13051
       O    -3.10992   -2.58613   17.17208
      H1    -2.33046   -3.13217   16.84960
       H   -10.88716    1.06836   13.49212
       O   -10.69788    0.12579   13.75170
      H1    -9.93282   -0.04671   13.18170
       H    -9.07972   -4.29673   13.81094
       O    -8.82641   -3.78719   14.60155
      H1    -9.68035   -3.64172   14.99099
       H     0.84403    5.40929   15.27449
       O     1.44607    4.66993   15.34917
      H1     2.25450    5.06800   15.72076
       H    -6.26572   -3.32944   17.46429
       O    -6.07391   -2.34474   17.59863
      H1    -5.12629   -2.26257   17.63275
       H     0.14142   -3.06950   13.94128
       O    -0.81487   -3.33139   14.16810
      H1    -1.16481   -3.55128   13.27326
       H    -8.70298    2.48866   12.48222
       O    -8.61394    2.40847   11.50707
      H1    -9.55153    2.51565   11.30548
       H    -0.12448    5.79232   17.72414
       O     0.59547    6.42696   17.67648
      H1     1.19312    6.00898   18.30438
       H    -6.30580   -5.56994   13.89196
       O    -6.19972   -5.29827   12.96963
      H1    -6.96312   -5.79578   12.64081
       H    -5.55149   -1.77681   14.17419
       O    -5.39130   -1.26725   15.04482
      H1    -5.74542   -1.93373   15.63027
       H    -9.20427    0.80023   16.15888
       O   -10.14368    0.72802   16.39903
      H1   -10.37203    0.19727   15.60876
       H    -6.17276   -1.94521    9.20180
       O    -6.61469   -1.63392    8.41842
      H1    -7.15482   -0.83923    8.62047
       H    -9.21573   -1.23363   10.89387
       O    -9.29219   -1.28194    9.93218
      H1    -9.45594   -0.37097    9.71793
       H     1.74773    1.18925   18.88839
       O     0.83413    1.00311   18.54208
      H1     0.52631    1.91150   18.26637
       H     1.79687   -3.28042   12.40074
       O     1.66810   -2.66596   13.18680
      H1     1.74625   -1.84694   12.63025
       H    -0.88129   -0.46008   13.80537
       O    -0.12701   -0.12788   14.23649
      H1    -0.15632   -0.58793   15.06360
       H    -0.29822   -4.81663   18.20381
       O    -0.19544   -5.70413   18.64376
      H1    -0.91780   -6.16906   18.25608
       H    -5.33478    4.08577   14.39680
       O    -5.85364    4.38159   15.15742
      H1    -6.64058    3.88819   15.06115
       H    -2.46494   -3.20738   19.87672
       O    -1.60693   -2.70269   19.60685
      H1    -1.81806   -2.51488   18.69099
       H    -7.80760   -2.91170    9.63843
       O    -7.80487   -3.63523   10.26752
      H1    -7.66471   -3.20812   11.10649
       H    -5.73963    1.03055   11.99125
       O    -5.74067    0.15468   11.59227
      H1    -6.20884    0.45379   10.77324
       H    -7.40227    4.47752   19.03354
       O    -7.34179    4.40711   18.07314
      H1    -6.43982    4.65942   17.90320
       H    -3.41584    5.62713   14.04999
       O    -3.62639    5.01882   13.30441
      H1    -4.49310    5.34944   13.06138
       H    -0.94259   -3.61649   15.81504
       O    -0.73381   -3.83522   16.72558
      H1    -0.19399   -3.03879   16.93455
       H     0.51459   -6.04214   14.60655
       O    -0.43021   -5.97348   14.44749
      H1    -0.64213   -5.02400   14.53158
       H    -3.85069    0.17796   15.56510
       O    -3.65160    0.92482   16.16657
      H1    -4.01977    1.64281   15.66503
       H     0.87536    2.26095   11.63205
       O     0.57919    1.49488   11.05718
      H1     0.80768    1.94479   10.21128
       H    -2.17876    6.13462   16.17716
       O    -2.40772    6.45945   15.26032
      H1    -2.76381    7.33999   15.45094
       H    -9.03134   -0.36302   18.46356
       O    -8.53154   -0.01402   19.27434
      H1    -7.90361   -0.78679   19.37662
       H    -8.18387   -1.71947   13.19629
       O    -8.44387   -0.97820   12.62738
      H1    -7.72911   -0.32671   12.56534
       H    -7.56423    1.17798   18.68916
       O    -6.94005    1.65781   18.12575
      H1    -7.29037    2.59206   18.05700
       H    -2.27681    5.01342   12.16453
       O    -1.64875    4.80910   11.41418
      H1    -1.38979    5.68616   11.15571
       H    -2.53134    0.50647   10.65140
       O    -1.80404   -0.13474   10.93910
      H1    -1.04328    0.45793   11.17524
       H    -3.21668   -5.22165   19.33292
       O    -3.42842   -5.81669   18.54661
      H1    -2.92621   -6.59545   18.73089
       H    -2.62645   -0.70081   12.55174
       O    -3.00169   -0.46555   13.41750
      H1    -3.71896   -1.09456   13.50388
       H    -6.98485    0.92805   16.44018
       O    -7.40735    0.64094   15.62880
      H1    -6.83216   -0.01202   15.23379
       H    -3.30258   -5.26137   13.30823
       O    -3.53397   -4.83031   12.52585
      H1    -4.50662   -4.87768   12.64216
       H     2.31152    2.18590   13.48774
       O     1.66343    2.91453   13.23634
      H1     1.81379    3.52937   13.95370
       H    -2.61553    2.37229    9.85262
       O    -3.31745    1.73148   10.00810
      H1    -4.12969    2.30328   10.11624
       H    -4.90860    3.89851   19.61040
       O    -5.15014    2.99178   19.89520
      H1    -5.63005    2.67226   19.10766
       H    -3.12114   -5.65342   15.94384
       O    -3.76232   -5.86808   15.26082
      H1    -4.61895   -5.70063   15.71485

