180
frame 8 | Written by MDAnalysis XYZWriter (release 2.4.3)
       H   -12.81030    8.99178  -10.99812
       O   -13.32833    8.66061  -10.27991
      H1   -12.66709    8.37619   -9.66966
       H   -17.98796   12.33343   -6.22017
       O   -17.31650   12.26524   -6.94742
      H1   -16.96135   13.17077   -7.00274
       H   -16.45202   16.08210   -4.78999
       O   -16.25164   15.26441   -4.34313
      H1   -16.62406   15.34620   -3.46676
       H   -11.48892    9.91737  -12.70190
       O   -12.39963    9.70527  -12.82767
      H1   -12.28131    8.81879  -13.13358
       H   -18.55698   15.33638  -16.39865
       O   -19.29185   15.86624  -16.02114
      H1   -20.06990   15.37906  -16.34677
       H   -17.90644   18.74501  -16.75469
       O   -17.23377   18.48311  -17.41353
      H1   -17.73731   17.77209  -17.85196
       H   -17.96885   14.26665   -9.25730
       O   -18.76942   14.75279   -9.11596
      H1   -18.39001   15.64132   -9.17169
       H   -10.04357   13.88810  -15.35112
       O   -10.33632   13.60985  -16.25403
      H1   -11.30067   13.80827  -16.30920
       H   -14.69344   15.49594  -12.38187
       O   -13.86192   15.92209  -11.99771
      H1   -14.23353   16.80419  -11.65501
       H   -14.39442   18.93689   -3.21064
       O   -13.72801   18.32347   -3.60350
      H1   -12.98826   18.35858   -2.96472
       H   -13.97831   19.98715   -8.12977
       O   -14.76693   19.41334   -8.07656
      H1   -14.99176   19.28633   -8.98347
       H   -13.01301   13.91672  -12.04149
       O   -13.10444   12.96043  -12.03294
      H1   -12.60272   12.72000  -12.83351
       H   -15.52310   18.83686  -10.90374
       O   -14.73870   18.26288  -10.76917
      H1   -15.04172   17.65405  -10.01912
       H   -12.86003   18.30262  -11.02465
       O   -11.89304   18.30479  -11.08152
      H1   -11.79583   18.86376  -11.91423
       H   -14.67373   12.31623   -6.20329
       O   -14.57914   12.89116   -5.39976
      H1   -15.48461   12.97660   -5.06140
       H   -13.93615   14.43925   -6.23647
       O   -13.97371   15.41065   -6.00484
      H1   -14.82646   15.30281   -5.51724
       H   -17.45104   16.40153   -6.48776
       O   -16.98320   17.22159   -6.29902
      H1   -17.43013   17.65981   -5.56396
       H   -18.32549   19.27783   -3.95909
       O   -17.45473   18.83422   -4.15735
      H1   -17.10478   18.55406   -3.33219
       H   -12.22961    9.78010  -17.71325
       O   -12.53265   10.68175  -17.64727
      H1   -11.82357   11.16773  -18.00856
       H   -15.21196   10.74516  -14.96915
       O   -16.14460   10.49435  -15.17877
      H1   -16.57778   10.81570  -14.34719
       H   -15.76860   14.65941  -17.33067
       O   -15.90361   13.76062  -17.48871
      H1   -15.40734   13.33161  -16.76406
       H   -16.29183   18.07771  -13.28132
       O   -16.00215   18.47110  -14.10094
      H1   -15.07742   18.56555  -13.97269
       H   -12.32914   12.40392  -10.64108
       O   -11.90839   11.85104   -9.90570
      H1   -10.98901   12.16631   -9.94340
       H    -9.33111   15.12622  -10.47739
       O    -9.28500   14.18309  -10.70911
      H1    -8.37349   13.87552  -10.53552
       H   -14.04208   16.49917  -18.93820
       O   -14.32883   17.42793  -18.97097
      H1   -15.24710   17.36011  -18.77279
       H   -10.92044   15.43559   -7.76757
       O    -9.98598   15.92240   -7.67103
      H1   -10.21723   16.66693   -7.05435
       H    -9.11530   14.05520  -12.97339
       O    -8.89046   13.69915  -13.82338
      H1    -7.97438   14.00735  -13.98222
       H   -19.39524    6.38983  -11.70341
       O   -19.07085    7.22727  -11.96280
      H1   -19.37799    7.81495  -11.25931
       H   -13.44431   18.27931  -17.64278
       O   -12.77087   18.77458  -17.11359
      H1   -12.00280   18.12718  -17.01859
       H    -9.77838   17.01594  -16.79185
       O   -10.45081   17.27160  -17.43344
      H1   -10.55359   16.53468  -18.04401
       H   -13.13382   15.24657   -4.07943
       O   -12.20187   15.30401   -3.78116
      H1   -11.98769   16.19301   -4.06124
       H   -18.54422   19.63364  -19.07077
       O   -19.46926   19.30414  -19.09491
      H1   -19.69767   19.37513  -18.21346
       H   -19.06589   14.58622   -7.33677
       O   -18.97764   14.66604   -6.34805
      H1   -19.77363   14.21417   -6.06359
       H   -14.85974    7.25895  -12.41110
       O   -14.03493    6.80689  -12.50449
      H1   -13.58763    6.97643  -11.66002
       H   -12.11005   17.58426   -6.11562
       O   -11.57082   17.64058   -5.28203
      H1   -12.11522   18.28428   -4.81498
       H   -18.98944   15.71877  -14.34229
       O   -18.65705   15.45068  -13.47219
      H1   -19.39465   15.04782  -13.00252
       H   -11.61799   16.19094  -14.00795
       O   -12.52443   16.06906  -14.32469
      H1   -13.00171   16.45239  -13.56781
       H   -13.19381   13.02769  -15.33623
       O   -12.98537   13.83390  -15.96317
      H1   -13.13379   14.53558  -15.30498
       H   -16.48770    9.43702  -18.86560
       O   -16.07587    9.03101  -19.70280
      H1   -16.31682    8.06099  -19.65725
       H   -13.21044   10.84117  -14.14454
       O   -13.39119   11.37442  -14.95715
      H1   -12.96658   10.88158  -15.75116
       H   -11.77512   19.01861  -14.05121
       O   -10.88939   19.00008  -13.79895
      H1   -10.64772   19.95576  -13.82760
       H    -9.78498   16.65517   -9.41245
       O    -9.75876   16.76816  -10.35585
      H1   -10.60650   17.32899  -10.50683
       H   -18.62269   16.68401  -12.46155
       O   -18.60157   17.36947  -11.80644
      H1   -19.33730   17.87798  -12.16365
       H   -18.98851   11.39124  -13.91406
       O   -18.59277   10.69229  -13.34939
      H1   -19.29121   10.05870  -13.62190
       H   -10.01651   17.49277  -13.35603
       O   -10.01112   16.54844  -13.07319
      H1   -10.18020   16.55382  -12.11301
       H   -18.84096   13.65771  -18.20248
       O   -18.47338   13.40982  -17.36034
      H1   -17.53343   13.39949  -17.52792
       H   -14.87988   12.70499   -8.85699
       O   -14.78097   13.70893   -8.61586
      H1   -13.84494   13.64932   -8.34450
       H   -13.59327   14.53757  -18.20171
       O   -13.26464   14.94543  -18.98014
      H1   -12.35597   15.01168  -18.83310
       H   -11.74957   13.41686   -6.71137
       O   -12.03060   13.75929   -7.60802
      H1   -11.47460   13.13534   -8.12697
       H   -15.24621   15.62873   -8.67219
       O   -15.91600   16.32408   -8.84880
      H1   -15.86093   16.72491   -7.97059
       H   -18.51390   11.12194   -9.71146
       O   -17.98502   11.90226   -9.64310
      H1   -18.07147   12.12212   -8.69184
       H   -17.23296   11.08230  -18.09703
       O   -17.35851   10.21574  -17.66061
      H1   -16.72049   10.32606  -16.89304
       H   -15.74249   10.99669  -11.67193
       O   -15.55494   11.64678  -12.36382
      H1   -14.82798   12.17627  -11.98789
       H   -16.94913   14.99880  -13.49431
       O   -16.00088   14.79565  -13.66392
      H1   -15.92888   13.83883  -13.50506
       H   -13.91403   10.75689   -8.83600
       O   -14.48548   10.92882   -8.07116
      H1   -15.13053   10.28797   -8.22180
       H   -13.77827   17.96263   -7.47521
       O   -13.03229   17.34486   -7.56466
      H1   -13.27478   16.56468   -7.00351
       H   -18.08774   17.96761   -8.65421
       O   -18.90683   17.47978   -8.86752
      H1   -19.01461   17.60172   -9.83002
       H   -16.49708    8.91053  -11.62033
       O   -16.40756    7.94910  -11.64323
      H1   -17.34401    7.66050  -11.81353
       H   -16.72615    8.25887   -9.35239
       O   -16.99343    8.59104   -8.53094
      H1   -17.69811    9.20234   -8.69083
       H   -15.58876   16.12283  -15.49728
       O   -15.52645   16.44259  -16.45673
      H1   -16.23206   17.10303  -16.50722

