180
frame 11 | Written by MDAnalysis XYZWriter (release 2.4.3)
       H   -15.28534    7.19458   -1.61966
       O   -15.50292    6.33409   -1.09842
      H1   -15.72942    5.71797   -1.75933
       H   -15.14557   15.09987    5.42582
       O   -14.31543   15.20119    5.90776
      H1   -13.94998   15.81759    5.27154
       H   -19.36557   14.49065    1.81359
       O   -19.59972   14.05658    0.92570
      H1   -18.79853   13.62603    0.85645
       H   -18.59664   10.95239   -5.69004
       O   -17.64946   11.17931   -5.90758
      H1   -17.73623   12.05005   -6.24890
       H   -18.46108   16.91006    3.15225
       O   -18.71301   15.94482    3.10555
      H1   -19.36677   15.99497    3.79529
       H   -17.94604   14.85930   -5.08039
       O   -17.72597   14.08322   -4.49629
      H1   -18.07442   14.19337   -3.57316
       H   -14.28591   15.88108   10.10967
       O   -14.31621   16.84578   10.06370
      H1   -13.83829   17.08634    9.23030
       H   -10.23112   12.30101    2.89380
       O   -10.22700   13.03205    3.57571
      H1    -9.48881   13.64099    3.32862
       H   -16.56393   11.50662    7.59352
       O   -17.27135   11.52476    6.89027
      H1   -17.68279   12.42297    7.04230
       H   -15.12486   12.03039   -5.25029
       O   -15.26668   12.91029   -4.84530
      H1   -16.23921   12.92614   -4.71883
       H    -9.86758   16.33069    1.25132
       O    -8.94073   16.64331    1.26578
      H1    -8.40740   15.87715    0.91312
       H   -19.56269   10.05875    8.42779
       O   -18.88230   10.67917    8.66145
      H1   -18.39702   10.72372    7.74318
       H   -17.14109   14.93973    3.58108
       O   -16.79527   14.57613    4.37828
      H1   -17.63491   14.37510    4.84423
       H   -14.73359   14.79955   -5.14940
       O   -14.75539   15.66249   -5.57181
      H1   -15.59785   15.96891   -5.42709
       H   -17.68172   17.34955   -6.61270
       O   -17.42386   16.91448   -5.73751
      H1   -17.37207   17.70681   -5.15252
       H   -12.32620   19.50876    2.76507
       O   -12.21784   18.73219    2.20058
      H1   -11.78820   19.11622    1.42604
       H   -18.78434   16.35824   -0.36627
       O   -18.84680   17.31154   -0.24511
      H1   -19.61642   17.32269    0.33561
       H   -12.89384   12.22987   -1.62656
       O   -12.34284   12.09272   -0.86395
      H1   -12.80064   11.29852   -0.50061
       H   -11.30178   10.81418    1.82646
       O   -10.56494   11.34688    1.49978
      H1   -11.00439   11.86815    0.79467
       H   -17.72770   17.22838    9.94523
       O   -17.44586   16.29790    9.85457
      H1   -16.50367   16.34930    9.71198
       H   -15.62163    7.12119    5.87090
       O   -15.67677    8.02147    6.22159
      H1   -15.99114    8.49251    5.42654
       H   -17.35975   16.71048    7.83883
       O   -17.77221   16.37897    6.99732
      H1   -17.24408   16.79428    6.31282
       H   -17.05801   10.42521    5.03558
       O   -17.38701    9.52688    4.83821
      H1   -17.04240    9.38218    3.93493
       H   -17.79153   11.05007   10.49659
       O   -17.02895   10.79066   11.01461
      H1   -16.33931   11.32423   10.51579
       H   -17.89200    7.25828    5.78960
       O   -18.54745    7.04764    6.44748
      H1   -18.98890    6.22304    6.14342
       H   -13.97416    9.91714   -2.65178
       O   -14.48469    9.50553   -1.93844
      H1   -13.82214    8.89602   -1.52692
       H   -13.52713   18.22584    1.15433
       O   -14.17545   17.66753    0.70417
      H1   -14.62969   18.24487    0.12164
       H   -14.79334   10.48642   -6.43866
       O   -15.09410   10.36615   -5.48273
      H1   -16.00738   10.13920   -5.62428
       H   -15.43001   11.38865   -1.70755
       O   -15.97396   12.17567   -1.83152
      H1   -16.84594   11.79156   -1.65010
       H   -15.27028   18.58377    5.84409
       O   -14.45975   19.08866    6.02796
      H1   -14.85639   19.82388    6.49597
       H   -13.30145   15.68003   -4.23718
       O   -12.72181   15.08282   -3.68119
      H1   -11.95662   15.68356   -3.60943
       H   -13.52872   11.41678    2.44117
       O   -13.12335   10.52561    2.37580
      H1   -13.94466    9.94932    2.21430
       H   -15.53577   15.13095   -0.79049
       O   -16.43226   15.30703   -0.49618
      H1   -16.24953   15.94810    0.22040
       H   -12.92945   15.91582    3.20447
       O   -13.19786   16.58200    3.80770
      H1   -13.02113   17.40289    3.31210
       H   -14.22573   11.40507    7.59453
       O   -14.70570   10.62468    7.93516
      H1   -14.53056    9.88695    7.36692
       H   -15.99408    6.35134    0.65914
       O   -15.65247    6.43981    1.58420
      H1   -14.74123    6.24000    1.40191
       H   -13.36877   17.94847    6.86385
       O   -12.98120   17.23862    7.37437
      H1   -13.32291   16.46881    6.92340
       H   -14.31933   10.44004    5.06283
       O   -13.36047   10.53395    5.21611
      H1   -13.06359   10.65079    4.32260
       H   -16.36240   13.94923    0.51616
       O   -16.64013   13.26980    1.20348
      H1   -15.78211   13.12067    1.58835
       H   -17.15530   18.89991    1.64718
       O   -17.10842   17.95634    2.07776
      H1   -17.85081   17.55039    1.62996
       H   -13.94804   16.32397   -0.53402
       O   -13.85126   15.32735   -0.68586
      H1   -13.62526   15.23893   -1.65135
       H   -16.71547    5.08667    5.17718
       O   -16.60452    5.92802    4.77618
      H1   -16.64195    5.69894    3.83531
       H   -17.65163   10.32168    0.98587
       O   -17.63823   10.73935    1.89295
      H1   -17.22813   11.59322    1.63753
       H   -10.46504   16.36702    5.98457
       O   -10.60877   15.78923    5.25543
      H1   -11.40739   16.12230    4.80469
       H   -15.71193    8.13415    2.05392
       O   -15.67537    9.04224    2.34658
      H1   -16.50253    9.48658    2.02538
       H   -16.47712    9.06129   -0.84629
       O   -17.31421    9.24131   -0.41674
      H1   -17.64318    8.30284   -0.25420
       H   -11.60662   15.60842   -0.33717
       O   -10.90910   15.00382   -0.02092
      H1   -10.34419   14.92258   -0.80062
       H   -17.20036   13.17692    9.94332
       O   -16.25917   13.32207    9.72923
      H1   -15.90626   13.90746   10.38120
       H   -13.98212   12.18926   -3.65083
       O   -13.29053   11.54464   -3.35810
      H1   -12.96527   11.18761   -4.27516
       H   -13.00957    8.52816    5.30488
       O   -13.17572    7.65763    5.06047
      H1   -14.06812    7.49032    5.30441
       H   -13.71275   13.68342    2.75122
       O   -14.34134   12.94717    2.68497
      H1   -14.74135   12.83155    3.59329
       H   -17.15083   18.49375    5.09330
       O   -16.65035   17.70037    4.92968
      H1   -16.75236   17.58811    3.96255
       H   -19.38471   14.12777    6.15175
       O   -18.60909   13.82800    6.57923
      H1   -18.26553   14.65903    6.91612
       H   -10.68298   18.42496    3.16259
       O    -9.86564   18.70293    3.58483
      H1   -10.22355   18.40350    4.44393
       H   -17.61880   17.71832   -2.01680
       O   -16.87565   18.14816   -2.41854
      H1   -16.64334   17.55020   -3.13494
       H   -11.59033   14.44820    1.45575
       O   -12.06034   14.52047    2.29611
      H1   -11.48520   13.94441    2.91084
       H   -19.34653   13.87750   -1.89779
       O   -18.95427   14.75441   -1.94753
      H1   -18.05636   14.59837   -1.70213
       H   -18.14034    5.59065    0.32674
       O   -18.19908    6.56867    0.27358
      H1   -19.13441    6.65764    0.01212
       H   -13.72116   13.82134    7.00252
       O   -13.24006   13.11851    7.46078
      H1   -12.53367   12.92237    6.73777
       H   -16.35916   12.88850    4.52674
       O   -15.89272   12.10125    4.74360
      H1   -16.02228   12.01278    5.72015

