180
frame 7 | Written by MDAnalysis XYZWriter (release 2.4.3)
       H   -15.76200   -5.62176    9.87055
       O   -16.38532   -6.38358    9.85816
      H1   -17.16793   -6.03435    9.44070
       H   -16.35203    1.05594    6.04378
       O   -15.97314    0.64840    5.22757
      H1   -16.43883    1.11642    4.51049
       H   -16.55093   -7.48043   -1.15554
       O   -16.02728   -6.68882   -0.87766
      H1   -15.33414   -6.75771   -1.49290
       H    -9.14525   -5.96362    5.04421
       O    -9.18188   -5.09830    4.60528
      H1    -8.53969   -4.49969    4.98099
       H    -9.24882   -2.35873    2.39919
       O    -8.29173   -2.26374    2.66316
      H1    -8.04276   -1.31780    2.62367
       H   -18.07596   -4.30256   -0.13283
       O   -18.47201   -4.56010    0.72689
      H1   -19.16444   -3.90884    0.99465
       H   -13.46385   -8.34297    8.45454
       O   -14.19296   -8.81840    8.85738
      H1   -14.83683   -8.14621    9.05143
       H   -16.98367    0.24410    2.31088
       O   -16.73090    1.04570    2.76209
      H1   -17.41893    1.69575    2.61723
       H   -16.46227   -2.67350   12.53318
       O   -16.25734   -2.18251   11.71400
      H1   -17.09536   -1.70231   11.58353
       H   -10.13617   -9.53391    2.81705
       O   -11.01376   -9.51049    3.20628
      H1   -11.45477  -10.32008    2.84082
       H   -12.66705   -2.78223   -1.30659
       O   -11.83547   -2.97908   -1.85040
      H1   -11.03391   -2.93293   -1.26931
       H   -11.30988   -4.78882    2.72315
       O   -11.35905   -4.25810    3.55755
      H1   -10.54170   -4.47061    4.06382
       H    -9.81566   -4.60744    8.98532
       O    -9.29945   -4.60762    8.16189
      H1    -9.27673   -5.53034    7.88623
       H    -9.73509    0.75791    3.42031
       O    -9.66520    1.37502    2.64670
      H1    -9.04176    1.07215    1.97232
       H   -13.20619   -1.18067    2.41971
       O   -12.86968   -1.63947    1.63273
      H1   -13.60674   -1.92560    1.04887
       H   -14.26562   -5.25920   11.47929
       O   -14.50502   -4.58530   10.85918
      H1   -13.75957   -4.56600   10.27736
       H   -10.75474   -1.02852    4.40163
       O    -9.95617   -0.52812    4.54171
      H1   -10.17210   -0.08539    5.35984
       H   -16.56757   -1.89765    1.83001
       O   -17.37066   -1.41884    1.76652
      H1   -17.61187   -1.51927    0.79901
       H   -17.20288    0.95937    8.84209
       O   -16.80255    0.67285    9.69321
      H1   -16.21772   -0.13748    9.56964
       H   -14.11421   -1.74673    4.49188
       O   -13.77549   -0.87427    4.17931
      H1   -14.45914   -0.18582    4.42865
       H    -7.32557   -3.40990    8.64172
       O    -7.45321   -2.71103    9.35022
      H1    -6.52282   -2.44240    9.48610
       H   -10.58169   -3.73606    7.16159
       O   -11.03709   -3.04641    6.67925
      H1   -10.30436   -2.46187    6.39508
       H   -12.56650    0.22467   11.31522
       O   -12.24682   -0.09805   10.49305
      H1   -12.97849   -0.56176   10.05921
       H   -15.20912   -3.85757    3.62804
       O   -15.84437   -3.53761    2.93303
      H1   -16.00835   -4.31692    2.42777
       H    -8.23007   -2.46878    5.78067
       O    -7.56990   -2.83934    5.16625
      H1    -7.76403   -2.67957    4.19565
       H   -17.89037   -9.73677    4.48764
       O   -17.99213   -9.65861    3.53530
      H1   -17.18774  -10.10604    3.19297
       H   -12.43923  -11.82221    6.67067
       O   -12.61600  -11.11382    6.06453
      H1   -11.80083  -10.58247    5.99544
       H   -13.38867   -7.33455   11.87445
       O   -13.94462   -7.07450   12.60706
      H1   -13.37494   -6.41211   13.11609
       H   -12.97631   -3.57388    4.25798
       O   -13.78808   -3.47054    4.76637
      H1   -13.76485   -4.09975    5.48601
       H    -9.71150  -10.33817    5.81875
       O   -10.37870   -9.65247    5.84759
      H1   -10.54052   -9.45920    4.90696
       H   -17.98973   -2.90240    9.96577
       O   -18.07185   -3.19778    9.08350
      H1   -18.75297   -2.58011    8.74489
       H    -9.95534    2.56860    6.47551
       O    -9.98351    1.59382    6.31229
      H1   -10.89292    1.39114    6.37785
       H   -12.14556   -0.56054    7.06444
       O   -12.39116    0.00108    6.30567
      H1   -12.99122   -0.41705    5.61809
       H   -12.07816   -5.93241    5.12330
       O   -11.92488   -6.88431    5.08827
      H1   -12.52049   -7.33103    4.54235
       H   -14.88370   -1.93825    8.65617
       O   -14.81988   -1.34470    9.41052
      H1   -15.06954   -1.88313   10.12889
       H    -8.97818   -5.88700   10.69535
       O    -9.68046   -5.58351   11.30796
      H1    -9.27590   -4.90822   11.85329
       H   -14.88321   -9.81011    3.02009
       O   -15.35604  -10.46030    2.46240
      H1   -14.80726  -11.23592    2.54623
       H   -20.35175   -2.07868    7.17554
       O   -19.69655   -1.37234    6.98532
      H1   -18.82466   -1.73850    6.78393
       H   -11.42769   -7.84306    8.11072
       O   -12.19896   -7.49168    7.75737
      H1   -11.96861   -7.28624    6.75383
       H   -10.38358   -3.82607    0.99891
       O   -10.41479   -2.88221    0.99440
      H1   -11.32621   -2.68892    1.23543
       H   -10.89702   -6.54244    0.49643
       O   -10.42645   -5.70535    0.62631
      H1    -9.51816   -5.87396    0.35231
       H   -18.38589   -4.52168    4.37417
       O   -18.32644   -3.61421    3.98705
      H1   -17.48116   -3.69617    3.51836
       H   -16.58706   -1.12522    5.66908
       O   -17.00825   -1.84907    6.16171
      H1   -17.50793   -2.38499    5.52825
       H   -12.43638    0.17771    1.46474
       O   -12.56975    1.13312    1.59736
      H1   -11.71524    1.40145    2.01197
       H   -19.54735   -6.40969    9.36948
       O   -18.87138   -5.92796    8.88048
      H1   -18.79388   -5.05820    9.22925
       H   -12.74843   -8.58764    2.94548
       O   -13.57635   -8.06656    3.04117
      H1   -13.69526   -7.57898    2.21710
       H   -12.33685   -6.81837    9.86758
       O   -11.98107   -7.22191   10.66020
      H1   -11.29330   -6.63217   10.93380
       H    -8.92380   -0.04669    7.51245
       O    -8.45910   -0.81696    7.12771
      H1    -7.93526   -1.26025    7.83953
       H   -17.13190   -5.62617    1.53821
       O   -16.24523   -6.06559    1.66156
      H1   -15.95591   -6.48737    0.80787
       H   -15.36972   -9.95460    7.42469
       O   -15.29539  -10.68225    6.79342
      H1   -14.32291  -10.62886    6.53297
       H    -9.33604   -2.54077   10.12354
       O   -10.23855   -2.29787   10.44994
      H1   -10.32123   -1.31763   10.31279
       H   -10.86272    0.29345    9.37010
       O   -10.05476    0.59865    8.93409
      H1    -9.59910    1.31507    9.46232
       H    -8.91541   -7.58115    8.04521
       O    -8.98233   -7.41202    7.10891
      H1    -9.36685   -8.23528    6.82706
       H   -15.14100   -6.62912    5.16201
       O   -15.97596   -6.77678    4.64887
      H1   -15.55068   -6.95952    3.79708
       H   -13.46509   -5.88707    7.28520
       O   -14.05311   -5.50261    6.63563
      H1   -14.63585   -4.84555    7.12001
       H   -17.78250   -6.69982    4.89450
       O   -18.71996   -6.43506    5.05670
      H1   -19.17350   -6.61604    4.27501
       H   -15.86326   -2.95808    7.15516
       O   -15.52835   -3.47900    7.86920
      H1   -16.25571   -3.74295    8.41691
       H   -12.71477   -7.09232   -0.87322
       O   -12.41943   -7.60539   -0.08099
      H1   -12.25837   -8.48683   -0.44866
       H   -15.19343   -3.01303   -1.28366
       O   -14.46771   -2.66879   -0.76442
      H1   -14.31622   -1.77810   -1.08593
       H   -11.61785   -3.36949    9.72197
       O   -12.12917   -4.08662    9.26259
      H1   -12.09608   -3.89021    8.32930

