180
frame 11 | Written by MDAnalysis XYZWriter (release 2.4.3)
       H   -13.70144    8.58133   15.45888
       O   -13.17905    7.89974   15.97908
      H1   -13.02260    8.40850   16.79544
       H   -16.87701   19.34281   13.28736
       O   -17.71346   18.83788   13.28873
      H1   -17.48453   18.06728   13.85546
       H   -15.14557   15.09987    5.42582
       O   -14.31543   15.20119    5.90776
      H1   -13.94998   15.81759    5.27154
       H   -16.49824    7.60687    9.78508
       O   -16.63276    7.86425   10.72104
      H1   -17.15528    8.70922   10.65200
       H   -12.55502   11.51206   19.38486
       O   -12.92402   11.05379   18.64584
      H1   -13.85928   11.23334   18.81161
       H   -11.66568    7.31735   14.87272
       O   -11.12209    7.03697   14.09604
      H1   -10.24624    7.27529   14.38069
       H   -13.18996    7.69347   11.57842
       O   -14.00104    7.72120   12.11836
      H1   -14.63868    7.79426   11.36722
       H   -14.28591   15.88108   10.10967
       O   -14.31621   16.84578   10.06370
      H1   -13.83829   17.08634    9.23030
       H   -10.49664   15.51068   13.79568
       O   -10.04226   16.10449   14.39603
      H1    -9.99525   16.87564   13.79798
       H   -14.06245   16.31127   17.30675
       O   -13.86479   15.84194   16.48721
      H1   -13.78923   14.89294   16.66912
       H   -12.73933   10.99129   13.82598
       O   -12.07020   11.46618   13.35271
      H1   -11.42277   11.79113   13.94597
       H   -17.17372   16.25954   14.94864
       O   -17.76422   16.99861   15.14667
      H1   -17.35851   17.34899   15.98857
       H   -14.11119   17.82064   13.21188
       O   -13.22262   17.95055   13.54246
      H1   -13.35235   17.58783   14.42241
       H   -16.56393   11.50662    7.59352
       O   -17.27135   11.52476    6.89027
      H1   -17.68279   12.42297    7.04230
       H   -14.93341    9.75264   14.38446
       O   -13.97040    9.77991   14.11512
      H1   -14.02082    8.98990   13.43106
       H   -19.56269   10.05875    8.42779
       O   -18.88230   10.67917    8.66145
      H1   -18.39702   10.72372    7.74318
       H   -10.98571   16.32433   10.70028
       O   -10.35474   16.19964    9.95974
      H1   -10.87124   15.58441    9.38757
       H   -11.75352   13.49976    8.33941
       O   -10.91689   13.79806    8.74697
      H1   -11.06020   13.48990    9.65293
       H    -9.54525   12.56926   13.49025
       O    -9.87140   13.21438   14.14167
      H1   -10.10942   12.53950   14.79817
       H   -16.20109   10.94936   14.24580
       O   -16.30644   10.39406   15.04384
      H1   -16.87955    9.63418   14.84882
       H   -13.24040    9.21554   18.95238
       O   -13.16783    8.27847   18.91110
      H1   -13.80309    8.03896   19.57421
       H   -10.47362   11.18694    8.45668
       O   -10.75657   10.31251    8.73184
      H1   -10.92577    9.83669    7.89007
       H    -9.91480   10.90887   16.44873
       O    -9.99335   10.87309   15.46572
      H1    -9.17146   10.33210   15.33688
       H   -17.42904   14.88482   18.41113
       O   -16.89844   15.17209   19.21269
      H1   -17.13286   14.41564   19.74863
       H   -17.72770   17.22838    9.94523
       O   -17.44586   16.29790    9.85457
      H1   -16.50367   16.34930    9.71198
       H   -11.64136    7.26678    9.88518
       O   -12.07833    8.11817    9.75771
      H1   -11.40942    8.78149    9.58270
       H   -17.35975   16.71048    7.83883
       O   -17.77221   16.37897    6.99732
      H1   -17.24408   16.79428    6.31282
       H   -19.24869   13.38542   18.41682
       O   -19.70791   13.34454   19.24682
      H1   -19.48006   12.43963   19.51035
       H   -17.79153   11.05007   10.49659
       O   -17.02895   10.79066   11.01461
      H1   -16.33931   11.32423   10.51579
       H   -13.09497    7.24236    8.35783
       O   -13.44786    6.48817    7.86555
      H1   -13.10088    6.75371    6.95122
       H   -14.99518   16.76068   19.16754
       O   -14.75872   17.52834   18.64602
      H1   -15.46649   17.67777   18.03130
       H   -13.41860   12.51071   17.71279
       O   -13.91843   13.25117   17.33910
      H1   -13.89863   13.86733   18.06021
       H   -12.22245   16.73441   16.31840
       O   -11.80699   17.61010   16.09299
      H1   -11.10112   17.27308   15.55111
       H   -11.84312   12.35959   11.79101
       O   -12.30033   12.74388   11.01080
      H1   -12.89806   12.06614   10.72323
       H   -16.60263    6.32194   14.08804
       O   -16.90084    6.52878   14.96076
      H1   -16.12556    6.49536   15.53703
       H    -8.61488   14.67898   12.29188
       O    -8.59879   14.43813   11.37140
      H1    -9.34314   14.95042   10.95516
       H   -11.85091   14.36381   11.63602
       O   -11.83254   15.20274   12.19939
      H1   -12.79147   15.25943   12.17262
       H   -19.32516    8.04837   16.61609
       O   -19.51940    8.91614   16.96399
      H1   -19.02500    9.48900   16.34984
       H   -14.22573   11.40507    7.59453
       O   -14.70570   10.62468    7.93516
      H1   -14.53056    9.88695    7.36692
       H   -16.39713   10.45551   19.85209
       O   -15.84516   10.14111   19.12066
      H1   -16.15941    9.22908   19.26326
       H   -13.36877   17.94847    6.86385
       O   -12.98120   17.23862    7.37437
      H1   -13.32291   16.46881    6.92340
       H   -14.84436    6.19480   12.75797
       O   -15.33471    5.33815   12.82717
      H1   -15.09844    5.05108   13.73594
       H   -16.83181    6.40861    7.77137
       O   -16.27865    6.18573    8.55297
      H1   -15.41425    6.52906    8.21867
       H   -16.25418   12.32606   12.69553
       O   -16.85695   12.51501   13.44683
      H1   -17.70604   12.12740   13.09495
       H   -15.66521    6.51237   18.22517
       O   -15.35527    6.26442   17.33635
      H1   -14.48317    6.71364   17.34053
       H   -18.26898   18.72355   11.65628
       O   -18.48421   18.49646   10.69020
      H1   -18.21956   19.36741   10.33386
       H   -17.20036   13.17692    9.94332
       O   -16.25917   13.32207    9.72923
      H1   -15.90626   13.90746   10.38120
       H   -17.69496    6.87643   11.77126
       O   -18.34261    6.51070   12.38609
      H1   -18.26430    5.54192   12.26723
       H   -19.38471   14.12777    6.15175
       O   -18.60909   13.82800    6.57923
      H1   -18.26553   14.65903    6.91612
       H   -18.85152   14.49997   11.77278
       O   -18.90610   14.89509   12.62322
      H1   -18.95573   15.86248   12.46999
       H   -18.10035   13.26895   16.98825
       O   -18.29101   14.17926   17.09911
      H1   -19.03675   14.46136   16.48907
       H   -15.35407   15.22574   14.81594
       O   -15.95908   15.28150   14.07510
      H1   -16.42253   14.44194   14.09620
       H   -11.19895    8.36548   12.91681
       O   -10.91736    8.98978   12.26820
      H1   -11.23125    9.80796   12.71795
       H   -13.72116   13.82134    7.00252
       O   -13.24006   13.11851    7.46078
      H1   -12.53367   12.92237    6.73777
       H   -13.44306    9.88321   10.65069
       O   -14.01714   10.70590   10.61217
      H1   -13.98654   10.65157    9.66969
       H   -18.53329   10.10985   20.04044
       O   -19.30622   10.17038   19.45815
      H1   -18.93077   10.21450   18.57014
       H   -14.13897   13.51898   12.28108
       O   -14.55904   14.27414   11.88634
      H1   -14.95916   14.67737   12.65689
       H   -18.32755    8.32241   13.27804
       O   -18.58547    9.16227   13.71163
      H1   -18.95487    9.75222   13.04990
       H   -17.50307   11.22004   16.15799
       O   -17.77382   11.57600   17.00593
      H1   -17.04450   11.29852   17.56143
       H   -16.35916   12.88850    4.52674
       O   -15.89272   12.10125    4.74360
      H1   -16.02228   12.01278    5.72015

