180
frame 5 | Written by MDAnalysis XYZWriter (release 2.4.3)
       H    -9.83783  -17.46879   14.37772
       O   -10.02709  -17.59360   15.30620
      H1    -9.50153  -18.31997   15.60106
       H    -8.13889  -11.05094    8.25048
       O    -9.02869  -11.27211    8.49010
      H1    -9.17297  -10.78851    9.33540
       H    -1.27655  -18.23655   -1.65044
       O    -1.60558  -18.41780   -0.76759
      H1    -2.50908  -18.70457   -1.02439
       H    -1.99961  -13.84560    1.77627
       O    -2.48301  -13.00548    1.64754
      H1    -3.13136  -13.03513    2.35265
       H     0.17692  -15.81719    8.11626
       O    -0.22297  -15.52434    7.30382
      H1     0.47707  -15.06625    6.76635
       H    -6.59333  -12.53459    0.37300
       O    -6.06608  -12.43307   -0.48525
      H1    -5.44154  -11.69764   -0.35584
       H    -7.34699  -12.15398    2.64950
       O    -7.47397  -12.80044    1.90358
      H1    -7.29050  -13.67309    2.37856
       H    -4.57402  -16.31600    9.51194
       O    -5.35958  -15.90923    9.86198
      H1    -6.01910  -16.10114    9.13450
       H   -13.59849  -18.18903    5.87834
       O   -13.21372  -18.08479    6.76912
      H1   -12.92841  -17.14610    6.83598
       H    -7.86573  -10.33181    3.35074
       O    -7.07052  -10.86798    3.56797
      H1    -6.89833  -10.73390    4.53438
       H     1.57381  -18.68394   10.36204
       O     1.39965  -18.35994   11.27545
      H1     0.58482  -18.81698   11.47806
       H    -9.54551  -14.19000    4.25112
       O    -8.81406  -13.55126    4.20336
      H1    -9.13736  -12.98042    3.48055
       H    -6.09891  -12.60903   10.96266
       O    -6.72977  -13.36458   11.06574
      H1    -6.23355  -14.13137   10.80331
       H   -11.48459  -14.76883    7.05438
       O   -11.95150  -15.61715    7.21747
      H1   -12.78143  -15.23220    7.54598
       H    -0.35506  -17.97113    6.75346
       O     0.57615  -18.10196    6.72934
      H1     0.82985  -17.36671    6.06831
       H    -5.56065  -14.08933   12.53320
       O    -4.94654  -14.63009   13.00288
      H1    -5.57190  -15.09726   13.63847
       H    -8.43665  -17.86107   12.05271
       O    -9.10592  -17.12865   12.27461
      H1    -9.96978  -17.46416   11.98032
       H    -2.95633  -18.04042   11.01181
       O    -2.64845  -17.77503   10.08036
      H1    -3.40182  -18.11040    9.52787
       H     1.93756  -19.37175    4.79128
       O     2.91807  -19.15964    5.00607
      H1     3.35559  -19.70695    4.28533
       H    -4.79521  -17.78211    0.40488
       O    -4.68672  -18.41237   -0.33233
      H1    -5.16414  -17.93629   -0.99718
       H    -5.73346  -15.67742    2.67615
       O    -6.38463  -15.12426    3.12815
      H1    -6.27132  -15.32430    4.06004
       H    -3.77069  -18.49989    6.89441
       O    -4.12549  -18.61795    7.82821
      H1    -5.02674  -18.85024    7.46720
       H   -15.56357  -18.48667    4.07218
       O   -14.78602  -18.92959    4.48105
      H1   -15.13673  -19.61332    5.05803
       H    -3.15667  -19.40929    1.61332
       O    -3.15114  -18.92150    2.49357
      H1    -2.19863  -19.00277    2.60362
       H    -3.64510  -12.67983    8.37056
       O    -4.31674  -12.28851    7.78728
      H1    -5.06897  -12.80671    7.98247
       H   -11.61737  -15.37728    3.62610
       O   -10.96367  -15.19921    4.30485
      H1   -11.33160  -15.43571    5.18706
       H    -2.09998  -14.32523    9.50749
       O    -2.31611  -13.41952    9.43291
      H1    -2.54671  -13.18254   10.33561
       H   -10.43218  -14.83037   10.00331
       O   -10.63709  -15.74331    9.63984
      H1   -11.12264  -15.71219    8.76269
       H    -1.11320  -16.69873    9.87002
       O    -0.18927  -16.36739    9.88364
      H1     0.22864  -17.13107   10.23092
       H    -6.67620  -19.55475    5.90455
       O    -6.51026  -18.77633    6.46659
      H1    -7.22927  -18.89047    7.05375
       H    -6.75776  -14.42842    6.36189
       O    -6.93301  -13.67609    6.94634
      H1    -7.39805  -14.10628    7.67366
       H   -15.60125  -18.35705    8.77165
       O   -15.54547  -17.75364    8.02778
      H1   -14.81870  -18.18339    7.57534
       H   -11.29244  -16.84658   10.71161
       O   -11.58072  -17.48590   11.37000
      H1   -11.99172  -16.88970   12.05608
       H    -8.46101  -15.37083   14.52285
       O    -8.94254  -14.87305   13.90911
      H1    -8.94919  -15.42461   13.11011
       H   -10.00864  -10.93236    3.32896
       O   -10.54233  -11.75883    3.47172
      H1   -10.14034  -12.03601    4.33519
       H    -5.24676  -15.97971    6.36196
       O    -6.14212  -16.02636    6.10012
      H1    -6.27487  -16.96370    6.10129
       H    -7.74761  -17.83138    8.81769
       O    -7.75689  -18.83168    8.93393
      H1    -6.93367  -19.03056    9.38592
       H    -9.72853  -15.98527    3.25535
       O    -9.08252  -16.26716    2.61199
      H1    -8.44850  -15.58286    2.65474
       H    -3.00172  -15.41799   12.65723
       O    -2.45411  -15.64218   13.48189
      H1    -2.95822  -15.12421   14.12696
       H    -8.86458  -15.99460    8.92942
       O    -7.97637  -16.02946    8.55137
      H1    -8.25758  -16.07640    7.62327
       H   -12.93507  -11.58124    5.69845
       O   -13.29767  -12.47358    5.49675
      H1   -12.64511  -12.99328    5.06128
       H    -9.71867  -13.34630    7.55705
       O   -10.06413  -13.55920    6.68534
      H1    -9.24608  -13.47732    6.17209
       H    -1.75031  -16.87854   -0.05385
       O    -1.86719  -15.98590    0.35608
      H1    -1.37258  -16.07715    1.18582
       H    -3.10578  -14.19243    6.64516
       O    -3.22718  -14.47706    5.70569
      H1    -3.66332  -13.65244    5.38588
       H     2.86823  -18.79352    8.37929
       O     2.03589  -19.24767    8.64287
      H1     1.45503  -18.95054    7.89360
       H   -13.03118  -17.53036    0.26371
       O   -12.24786  -17.26604    0.71428
      H1   -11.95268  -18.11258    1.18752
       H   -10.88481  -16.28687    0.19738
       O   -10.02139  -15.78932    0.01665
      H1    -9.49445  -16.06062    0.74806
       H    -3.57895  -17.38107    2.17042
       O    -3.99083  -16.59480    1.86877
      H1    -3.31424  -16.29405    1.26719
       H    -5.46956  -10.81780    6.57145
       O    -6.34828  -10.55830    6.25373
      H1    -6.22795   -9.58793    6.14707
       H    -0.75910  -12.82218    8.58683
       O    -0.16810  -12.06841    8.35399
      H1     0.59697  -12.59116    8.07554
       H   -10.09473  -12.87725   10.30604
       O    -9.55677  -13.53103   10.79059
      H1    -8.66199  -13.22520   10.50951
       H   -14.75177  -19.71282   10.70601
       O   -14.57235  -18.76472   10.55559
      H1   -13.66587  -18.75438   10.18424
       H    -2.42666  -19.39711    5.14360
       O    -2.96928  -18.61464    5.43246
      H1    -3.14903  -18.19637    4.58717
       H    -6.70644  -17.18582   14.07436
       O    -6.99189  -16.76549   14.92362
      H1    -7.11029  -17.59606   15.39343
       H    -4.90637  -12.01851    4.61181
       O    -4.53377  -12.64825    3.99192
      H1    -5.32179  -13.03162    3.55182
       H    -6.26806  -18.23566   11.67060
       O    -6.03300  -17.72655   12.46965
      H1    -5.96768  -16.83612   12.15414
       H    -9.29703  -17.19697    5.22497
       O    -9.14737  -17.18848    6.16611
      H1    -9.91963  -17.67414    6.57155
       H    -3.22902  -17.36812   12.74600
       O    -3.28357  -18.37184   12.51033
      H1    -4.23947  -18.44429   12.56368
       H    -0.76240  -16.27368    3.93888
       O    -0.71519  -15.34274    4.12298
      H1    -1.60163  -15.22491    4.53635
       H     0.04681  -18.41065    3.56914
       O    -0.53228  -17.80258    3.02441
      H1     0.11654  -17.67418    2.30843

