180
frame 9 | Written by MDAnalysis XYZWriter (release 2.4.3)
       H    -1.14694   -8.53768  -13.84995
       O    -1.05116   -8.07420  -13.03962
      H1    -0.89491   -8.81112  -12.42852
       H    -4.97356   -6.59425  -10.36964
       O    -5.79409   -6.10787  -10.49940
      H1    -6.09223   -6.02010   -9.58510
       H    -1.96142    0.47132  -13.30867
       O    -2.64081    0.10717  -12.72237
      H1    -3.43341    0.57759  -13.00428
       H    -2.11876   -3.04672  -12.62246
       O    -2.69348   -2.61938  -13.28734
      H1    -2.73339   -1.66050  -12.93192
       H    -3.87293    0.46321  -16.81061
       O    -3.61536    0.14213  -15.88762
      H1    -3.04404   -0.66498  -16.14190
       H    -6.36202   -1.36269   -9.92768
       O    -7.33361   -1.31271  -10.00947
      H1    -7.35068   -0.64693   -9.28271
       H    -0.04035   -2.96151   -7.63403
       O     0.56133   -3.12102   -6.90551
      H1     0.99481   -3.87745   -7.26566
       H     2.79214    0.41060  -12.65855
       O     3.39020   -0.19057  -13.16433
      H1     4.27514    0.14912  -12.91157
       H     5.54128   -5.72213   -9.21124
       O     6.24878   -5.53455   -9.82432
      H1     5.86441   -5.21595  -10.61977
       H    -6.16068   -1.46951  -13.50900
       O    -6.62441   -0.89965  -14.16170
      H1    -7.24052   -0.46322  -13.57405
       H    -6.12765   -2.36813  -15.58943
       O    -5.81640   -3.27811  -15.78603
      H1    -6.13893   -3.24425  -16.71167
       H     3.36289   -2.99700  -10.37703
       O     2.71241   -3.27735   -9.67658
      H1     3.01725   -2.77442   -8.88518
       H     0.50031   -1.95666  -11.58019
       O     0.39419   -2.09868  -10.56176
      H1     1.27984   -2.54333  -10.31039
       H    -1.90695    2.14040   -7.70590
       O    -2.58591    2.62819   -8.21679
      H1    -2.54389    2.20768   -9.11361
       H     1.69958    1.39788  -10.77487
       O     2.14838    1.91518  -11.42385
      H1     1.37147    2.25007  -11.94603
       H    -1.74594    1.37195  -11.45526
       O    -1.41241    1.46339  -10.53271
      H1    -1.12038    2.38787  -10.50497
       H    -7.71167   -4.94180  -12.92482
       O    -6.69565   -4.99560  -12.93591
      H1    -6.48751   -5.25554  -12.01511
       H    -1.71839   -5.24867  -10.44032
       O    -1.78604   -5.84068   -9.65146
      H1    -2.41407   -5.36339   -9.08345
       H     2.31036   -0.23807   -9.65808
       O     1.47576    0.04496   -9.30835
      H1     0.88043   -0.50082   -9.84501
       H     2.53302   -1.61079   -6.78519
       O     3.27310   -1.77008   -7.37939
      H1     4.01433   -2.17450   -6.87771
       H     3.11240   -6.39999   -9.98531
       O     2.25938   -6.67684  -10.31459
      H1     1.64268   -6.40555   -9.61444
       H     0.27777   -6.66713  -12.70955
       O     0.78714   -5.84932  -12.82465
      H1     1.35859   -5.76253  -12.04777
       H     3.24805   -5.89336  -15.13424
       O     4.08574   -6.37102  -15.04679
      H1     4.16888   -6.83243  -15.86414
       H     2.71113   -8.51832  -10.00595
       O     2.75456   -9.45977   -9.74287
      H1     3.55280   -9.76117  -10.10913
       H     1.70844    0.63389  -16.78430
       O     2.00995    0.23683  -15.97106
      H1     2.16103    1.06176  -15.36794
       H     0.30043   -4.13278  -17.33490
       O     0.68241   -3.25872  -17.09608
      H1    -0.19156   -2.85142  -16.91754
       H     3.52918   -2.00693  -12.44024
       O     4.13850   -2.67488  -12.09142
      H1     4.40769   -3.19876  -12.84388
       H    -2.32607   -2.53963  -15.13188
       O    -1.94468   -1.87339  -15.83296
      H1    -1.35624   -1.34801  -15.22001
       H    -4.63810    1.00260  -14.60586
       O    -4.79716    1.54470  -13.80187
      H1    -4.36344    2.37287  -13.94681
       H    -2.61123   -7.43444  -12.87128
       O    -3.30705   -6.76956  -12.68433
      H1    -3.83067   -6.91588  -13.41755
       H     6.66520   -2.46565  -10.56807
       O     6.22686   -1.61736  -10.61722
      H1     5.86705   -1.70633  -11.52625
       H    -0.61932   -3.35760  -11.42791
       O    -1.14667   -4.05132  -11.87067
      H1    -0.53916   -4.56442  -12.40328
       H     2.97456   -8.47294  -15.59210
       O     2.14654   -8.54426  -15.15677
      H1     1.96988   -7.57314  -15.09913
       H    -1.06191   -1.98275   -9.49993
       O    -1.73847   -2.19120   -8.86120
      H1    -2.35107   -1.39189   -8.82522
       H    -3.11393   -3.97860  -14.27831
       O    -3.28143   -4.57111  -15.03515
      H1    -3.78881   -4.00443  -15.63146
       H     1.06644   -8.18729   -6.95384
       O     0.13893   -7.89251   -6.90665
      H1    -0.23265   -8.56903   -7.48887
       H    -1.19778   -5.48611  -17.05500
       O    -0.42704   -5.97791  -17.34060
      H1    -0.52610   -5.97137  -18.26364
       H    -3.47068   -0.95846   -6.73771
       O    -3.64489   -1.12689   -5.81199
      H1    -4.32919   -0.52833   -5.56900
       H     0.14669    1.84778   -7.06722
       O    -0.34973    1.02165   -7.10733
      H1    -0.04495    0.68476   -7.95588
       H    -4.91460   -2.82554  -10.38822
       O    -4.52739   -2.44544   -9.59236
      H1    -3.56188   -2.72456   -9.54210
       H    -6.11292   -4.77568   -7.49909
       O    -5.84614   -5.70251   -7.39161
      H1    -4.89868   -5.63289   -7.29529
       H    -1.32916   -3.92555   -4.71124
       O    -1.49244   -4.55412   -5.39429
      H1    -0.76779   -4.43091   -6.02933
       H    -3.01996   -5.56860   -5.41125
       O    -3.50402   -6.36103   -5.68495
      H1    -4.40219   -6.11989   -5.45399
       H     4.67554   -2.63151  -14.92162
       O     5.43984   -3.13743  -14.48993
      H1     6.20379   -2.70505  -14.97670
       H    -0.03357   -5.44402   -8.61431
       O     0.85566   -5.41802   -8.28950
      H1     0.73092   -6.10567   -7.58469
       H     1.16587   -1.22624   -5.09604
       O     1.32151   -0.27115   -5.32289
      H1     0.60623   -0.08743   -5.94952
       H     1.74691   -3.23068   -3.74676
       O     0.97900   -2.79982   -4.18341
      H1     0.89703   -3.37150   -4.96644
       H     5.25527   -6.04827  -13.26437
       O     5.99219   -5.46836  -12.90563
      H1     5.83557   -4.70215  -13.45395
       H     3.22624   -5.30809   -7.44417
       O     3.75637   -5.42846   -8.25418
      H1     3.42464   -4.74473   -8.88659
       H    -3.62101   -7.54055  -11.12536
       O    -3.71162   -7.82672  -10.23609
      H1    -2.92596   -7.32425   -9.93830
       H     4.87028   -0.52834   -9.71358
       O     4.19858    0.08313   -9.49836
      H1     4.10023    0.02677   -8.53444
       H     0.86269    3.34322  -13.80681
       O     0.43743    2.72611  -13.22444
      H1     0.09213    2.01801  -13.82620
       H    -2.98296    0.89573   -8.22055
       O    -3.20208   -0.03403   -8.14899
      H1    -3.78829   -0.15631   -8.90967
       H    -4.43419   -2.58884  -12.67852
       O    -5.36167   -2.71025  -12.48678
      H1    -5.42986   -3.62899  -12.88827
       H    -4.26783   -3.64371   -8.18999
       O    -3.59092   -4.22723   -7.88562
      H1    -3.27450   -3.78277   -7.08823
       H     2.57467   -1.65628  -15.65170
       O     2.90458   -2.50363  -15.23031
      H1     2.41351   -3.07403  -15.81487
       H    -0.58245    1.01962  -15.47322
       O    -0.62754    0.64746  -14.59071
      H1     0.10672    0.01877  -14.65152
       H     0.52903   -6.20034  -15.92119
       O     1.30037   -5.96608  -15.35345
      H1     1.01377   -6.04546  -14.44813
       H    -4.41623   -5.73481  -14.93904
       O    -5.14790   -6.32625  -15.01467
      H1    -5.80682   -5.92359  -14.48627
       H     0.20101   -2.94659  -13.75008
       O     0.56819   -2.04160  -13.62238
      H1     1.44275   -2.19630  -14.00675

