180
frame 0 | Written by MDAnalysis XYZWriter (release 2.4.3)
       H     5.25831    5.74088  -18.84238
       O     4.94274    5.47106  -19.72439
      H1     4.34396    4.73643  -19.53268
       H     4.97867    7.54394  -14.16748
       O     4.71257    7.45387  -13.25545
      H1     3.94329    8.05423  -13.27369
       H     3.83037   10.66813  -12.05102
       O     4.05058   11.01969  -12.92690
      H1     4.99683   11.09888  -12.94223
       H     5.51282   11.91629  -18.58037
       O     5.87487   11.21120  -19.19027
      H1     5.32959   11.28442  -19.99310
       H     6.86218    9.13277  -12.76869
       O     6.75129    9.96065  -13.29260
      H1     7.64749    9.93954  -13.59991
       H    -4.08414    1.83280  -18.37625
       O    -3.25622    2.17867  -18.02229
      H1    -2.71988    1.57376  -18.50620
       H    11.81157    5.00449  -17.33936
       O    10.84367    5.27150  -17.17923
      H1    10.38588    4.37804  -17.12552
       H    -4.30060    4.10436  -19.72556
       O    -3.70366    4.64120  -19.26224
      H1    -3.25995    3.99459  -18.67909
       H     3.17923    2.23102  -10.74309
       O     3.89635    2.17434  -11.33388
      H1     4.02685    3.04616  -11.72917
       H     6.46134    0.74189  -19.92166
       O     5.57346    0.70059  -19.51941
      H1     5.83346    0.65697  -18.52625
       H     4.84127    0.55330  -13.39049
       O     3.86086    0.46858  -13.38848
      H1     3.70910    1.03860  -12.61879
       H     0.74710    3.50734  -13.33669
       O     1.31801    3.43560  -12.50564
      H1     1.03654    2.59567  -12.20013
       H    11.43299    9.06913  -13.35355
       O    10.80005    8.38783  -13.51491
      H1    10.95778    8.05547  -14.40499
       H     6.69271    2.09082  -13.85428
       O     6.47838    1.18885  -13.57599
      H1     6.92741    1.16944  -12.73271
       H     7.67206    0.36423  -14.84476
       O     8.46755   -0.19333  -15.06014
      H1     9.20770    0.40051  -14.93580
       H    10.21378   10.18429  -16.21365
       O    10.78193    9.76583  -16.88604
      H1    10.57936   10.36179  -17.65703
       H    13.42046    8.07271  -18.80433
       O    13.52562    7.48253  -19.58743
      H1    13.94234    6.72040  -19.18135
       H     7.45193   12.57769  -15.23501
       O     7.96150   13.38215  -15.32773
      H1     8.65495   13.28790  -16.00414
       H    -1.26375   10.94219  -18.95071
       O    -2.09198   11.08161  -18.47514
      H1    -2.01391   11.93934  -17.98745
       H     2.52867    1.09923  -14.77446
       O     1.87487    1.68381  -15.14785
      H1     2.06612    2.48320  -14.55701
       H     3.72851   -2.72062  -18.62061
       O     2.78346   -2.46278  -18.72928
      H1     2.88629   -2.55319  -19.68815
       H     9.38837    7.19032  -16.99928
       O     8.78091    7.92830  -16.64246
      H1     9.30783    8.67088  -16.91045
       H     2.24283   11.89454  -17.64047
       O     1.90286   12.12493  -16.74197
      H1     1.31580   11.28639  -16.58385
       H    -0.82205    4.43749  -18.37216
       O    -1.47447    4.55728  -17.63526
      H1    -1.60347    3.62893  -17.37506
       H     3.79926    2.91794  -19.92565
       O     3.18749    3.18190  -19.19944
      H1     3.36299    2.43576  -18.60465
       H     7.99824    3.13361  -17.50133
       O     8.31759    3.83929  -16.89448
      H1     8.00865    4.61516  -17.42887
       H    11.54276    5.57527  -15.10152
       O    11.86217    5.24290  -14.24067
      H1    11.06408    5.20617  -13.74449
       H     2.10204    0.32411  -17.64764
       O     2.87641    1.00975  -17.51094
      H1     2.44046    1.58972  -16.91434
       H     3.09091    8.00035  -16.78571
       O     2.59386    7.26203  -16.37385
      H1     2.41113    7.68351  -15.52218
       H    -0.59388    0.48615  -19.25090
       O    -1.45873    0.09294  -19.05031
      H1    -1.35674   -0.86710  -19.31206
       H     6.51413    6.50125  -14.90257
       O     6.04707    6.93342  -15.64006
      H1     6.60635    7.59547  -16.06610
       H    -1.97922    6.51435  -16.26077
       O    -1.67737    7.14568  -15.53171
      H1    -2.04032    8.01450  -15.74946
       H     7.41328    4.35482  -14.85042
       O     6.89375    4.20304  -14.05054
      H1     7.60554    4.42595  -13.38723
       H     1.80777    9.43190  -14.14424
       O     2.67665    8.96911  -14.25121
      H1     3.30323    9.63711  -13.83187
       H     0.30385    5.12497  -16.80920
       O     1.07680    4.84482  -16.28408
      H1     1.56470    5.66594  -16.18853
       H     5.29908    5.40119  -16.58266
       O     4.59817    4.92267  -17.02983
      H1     3.82330    5.47106  -16.69661
       H     9.78504    9.84649  -13.89612
       O     9.29766   10.57520  -14.39869
      H1     9.60955   11.37852  -13.86542
       H     5.78792    8.00631  -11.72076
       O     6.68145    7.99283  -11.34424
      H1     6.48818    8.50708  -10.53367
       H    11.42686    1.52115  -18.17730
       O    11.00506    2.24256  -17.63361
      H1    11.02174    1.89133  -16.72808
       H    12.32904    9.09544  -17.09236
       O    13.26114    9.05499  -17.42810
      H1    13.77732    9.05834  -16.60381
       H     5.14235   13.77893  -17.39797
       O     5.37064   12.90214  -16.98549
      H1     4.91573   12.91125  -16.13499
       H     4.58906   -2.46128  -13.55179
       O     4.99698   -2.70813  -14.38234
      H1     5.12940   -1.83134  -14.70999
       H    -0.38063    7.19823  -13.86172
       O    -0.26751    6.50902  -13.23965
      H1     0.54849    6.70877  -12.73448
       H     9.13074    5.30249  -11.73974
       O     9.05364    4.65214  -12.41607
      H1     9.12096    3.79896  -11.90009
       H    11.29142    0.84178  -14.85969
       O    10.57304    1.50288  -14.97835
      H1    10.81199    2.25856  -14.37365
       H     5.38103    2.75592  -16.91279
       O     5.93690    1.97016  -16.88653
      H1     5.57613    1.44625  -16.16709
       H     4.71398    5.80370  -12.33590
       O     4.59407    4.86836  -12.15223
      H1     5.08270    4.49953  -12.93147
       H     5.46724   -2.07632  -19.05607
       O     5.34818   -2.68353  -18.27226
      H1     5.83994   -3.46568  -18.46657
       H     0.58025    8.93678  -16.59202
       O     0.58443    9.83707  -16.26306
      H1    -0.33948    9.90829  -15.99089
       H     1.67966    5.50815  -11.89676
       O     1.99882    6.38484  -11.60676
      H1     2.97857    6.13126  -11.55546
       H    -0.10240    4.12961  -15.20299
       O    -0.47823    3.87552  -14.34835
      H1    -0.44864    4.71061  -13.80585
       H     1.73142   10.01645  -19.27366
       O     2.06677    9.31855  -18.73855
      H1     2.89429    9.54914  -18.23284
       H     4.93834    9.74291  -16.49608
       O     4.32351    9.70446  -17.22787
      H1     4.74657   10.32406  -17.87753
       H     0.01632    1.84470  -15.84241
       O    -0.58181    2.03513  -16.61139
      H1    -1.39814    1.60523  -16.24727
       H     7.65829    7.14544  -17.81594
       O     7.48372    6.31356  -18.33734
      H1     7.72671    6.67786  -19.22948
       H     4.25833   -0.32005  -16.60925
       O     5.03262   -0.61869  -16.20509
      H1     5.24362   -1.46313  -16.69283
       H    -0.09825    0.09517  -16.48988
       O     0.27060   -0.72545  -16.83300
      H1    -0.27483   -0.96005  -17.61621
       H     1.34817    4.14806  -19.08048
       O     0.66959    4.78460  -19.33615
      H1     1.18580    5.61156  -19.37037
       H     9.50382   -0.91422  -16.83279
       O     9.67914   -1.44511  -17.62325
      H1     9.33484   -2.22445  -17.26908
       H    10.66230    6.17899  -18.71680
       O    10.92972    6.48971  -19.62519
      H1    11.88590    6.77111  -19.47340

