180
frame 131 | Written by MDAnalysis XYZWriter (release 2.4.3)
       H     5.13416   -9.75477  -14.90465
       O     4.62460   -9.01825  -14.66105
      H1     5.12486   -8.23679  -14.98071
       H     4.42010   -4.29981   -8.66385
       O     5.23327   -3.91842   -8.34744
      H1     5.70405   -3.73718   -9.18951
       H     3.13331  -11.77457  -12.07003
       O     3.39302  -11.73880  -11.16056
      H1     2.51343  -11.62115  -10.71739
       H     1.31094  -10.87323   -6.66225
       O     2.05467  -11.17681   -7.20134
      H1     1.66134  -11.63547   -7.98609
       H     2.24270  -11.74792  -14.59561
       O     2.79280  -12.11743  -13.83145
      H1     3.54624  -12.40849  -14.32288
       H     6.14610  -11.39145   -8.29441
       O     6.66332  -11.09951   -7.52406
      H1     6.35204  -10.16239   -7.70993
       H     0.41283  -10.15053  -14.67238
       O    -0.33260  -10.75357  -14.69342
      H1    -0.62032  -10.68555  -15.63840
       H     2.48656  -15.57272  -10.29183
       O     3.22091  -16.10870  -10.06365
      H1     3.46958  -16.57968  -10.86590
       H     7.33391  -16.61691  -11.08362
       O     7.55537  -15.72205  -10.77341
      H1     6.93690  -15.53145  -10.04990
       H     4.98025  -13.38683   -9.76371
       O     5.31253  -12.48019   -9.65803
      H1     4.57438  -12.10512  -10.12180
       H     4.18660  -10.17151  -11.39285
       O     4.93524   -9.54520  -11.20876
      H1     5.10505   -9.19959  -12.14295
       H     2.88222  -10.39946  -16.90831
       O     2.59244   -9.48450  -16.67675
      H1     3.32469   -9.31717  -16.09844
       H     8.67192  -10.02538  -14.37966
       O     8.77824   -9.06931  -14.16361
      H1     8.35419   -9.01696  -13.33443
       H     2.92765  -12.97005   -5.95454
       O     3.43289  -13.73277   -6.20978
      H1     3.25452  -14.43857   -5.54738
       H     2.28513   -9.67930   -7.97630
       O     2.63779   -8.86223   -8.40617
      H1     1.92728   -8.66070   -9.03359
       H     3.17667   -5.22235  -14.60466
       O     2.60409   -5.58301  -13.88989
      H1     1.70013   -5.23722  -14.15965
       H     1.73547   -6.36928   -6.71808
       O     0.93803   -6.67689   -7.18432
      H1     1.29803   -7.49559   -7.60439
       H     4.53264  -15.58280   -8.71506
       O     5.46559  -15.27046   -8.80467
      H1     5.63456  -14.86019   -7.86416
       H     6.98881   -5.94853   -7.61759
       O     7.61457   -5.92636   -8.31546
      H1     7.48461   -5.07359   -8.69014
       H     7.15644   -3.15395  -10.35665
       O     6.77388   -3.99034  -10.63513
      H1     7.13897   -4.11112  -11.56634
       H     3.25384   -7.90532  -10.86422
       O     2.50087   -7.52859  -11.32940
      H1     2.85893   -6.78964  -11.80333
       H     9.90747  -11.81525   -7.74376
       O     9.44938  -11.29767   -7.04748
      H1     8.52879  -11.41846   -7.32108
       H     0.27216  -11.56598  -11.05865
       O     0.77170  -11.64575  -10.21628
      H1     0.20683  -11.03475   -9.69518
       H     1.61504  -14.65941   -7.31459
       O     0.74701  -14.99007   -7.50675
      H1     0.83637  -14.84625   -8.42660
       H     6.84111   -9.79266  -11.01113
       O     7.70253   -9.98628  -11.35982
      H1     8.34363   -9.56234  -10.76326
       H     9.24348  -13.93963   -9.88184
       O     9.43600  -13.81253   -8.93369
      H1     9.28148  -14.68519   -8.62601
       H     2.89072  -12.42936  -17.00644
       O     3.62138  -11.81199  -16.86583
      H1     4.22707  -11.99072  -17.58191
       H    -1.47535  -15.07604  -15.00395
       O    -0.91834  -14.36814  -14.58428
      H1    -0.04238  -14.39602  -14.95669
       H     6.26564   -6.84306  -11.84802
       O     6.99860   -6.86538  -12.52962
      H1     7.67133   -6.93759  -11.88532
       H     8.98486   -6.72890  -16.59064
       O     8.48082   -6.68505  -15.74559
      H1     8.44239   -7.62215  -15.53490
       H     5.36652  -12.84601  -14.29691
       O     5.02822  -13.75238  -14.20510
      H1     5.17582  -14.06614  -15.11155
       H    -1.32697   -9.69147  -13.42130
       O    -1.77236   -8.95851  -12.98490
      H1    -2.19540   -9.25536  -12.18003
       H    -1.22527   -9.86928   -8.18147
       O    -0.41180   -9.59061   -8.64297
      H1    -0.77883   -9.08984   -9.39713
       H     3.88631   -4.18784  -12.46345
       O     3.85364   -3.23999  -12.21525
      H1     4.63417   -2.91995  -12.70806
       H     6.65489  -13.86326  -13.71534
       O     7.60999  -14.07157  -13.88045
      H1     7.92542  -13.72495  -13.05317
       H     8.65938  -12.50760  -14.73285
       O     9.25534  -11.71337  -14.77814
      H1     9.91798  -11.93148  -14.10896
       H     6.18515  -14.47123  -16.91085
       O     5.25837  -14.39350  -16.76471
      H1     4.88388  -14.14059  -17.67861
       H     0.83930   -7.48245  -11.56641
       O    -0.15434   -7.39221  -11.49239
      H1    -0.48396   -8.01986  -12.23358
       H     1.99960   -8.72927  -13.15949
       O     1.75573   -9.05890  -14.05292
      H1     2.58869   -9.37044  -14.35189
       H     2.27691   -5.22933   -9.69299
       O     3.00870   -5.25109   -9.09920
      H1     3.47520   -5.95233   -9.51213
       H     8.61523   -4.38496  -13.28949
       O     7.68282   -4.24550  -12.98568
      H1     7.27214   -5.12977  -13.10327
       H     8.99165  -14.86223  -11.61787
       O     9.96250  -14.60558  -11.62844
      H1    10.23240  -14.54573  -12.54775
       H     6.76046  -11.34256  -14.86860
       O     6.13829  -11.36349  -14.14344
      H1     6.60717  -11.11231  -13.33143
       H     6.27715  -13.04459   -6.53799
       O     6.01720  -14.01935   -6.39022
      H1     5.06373  -13.81694   -6.33141
       H     5.18376   -7.60881   -7.67350
       O     5.25312   -8.40782   -8.21198
      H1     4.31265   -8.57439   -8.39550
       H     5.45071   -6.62286  -16.49089
       O     5.61832   -6.63633  -15.54183
      H1     6.57806   -6.44270  -15.58286
       H     1.03783   -8.00158  -15.76388
       O     0.27613   -7.47249  -16.07244
      H1     0.16565   -7.71641  -16.98810
       H     9.23752   -8.08908   -9.64946
       O     8.73254   -7.51319  -10.29985
      H1     8.12819   -7.03589   -9.71684
       H     3.25269   -9.46952   -4.58373
       O     4.05354   -9.05679   -4.92065
      H1     4.22601   -9.41201   -5.81933
       H     0.90642  -13.81374  -17.09780
       O     1.32726  -13.62685  -16.25296
      H1     1.50866  -14.50639  -15.91064
       H    -0.83112  -11.83988  -13.50500
       O    -1.10345  -12.06422  -12.57343
      H1    -0.93952  -13.04646  -12.48912
       H     5.48238   -5.07511   -7.07148
       O     5.66191   -5.81873   -6.48031
      H1     5.93504   -5.25743   -5.69599
       H    -0.51870   -4.74271  -13.18361
       O    -1.00324   -4.88894  -12.31726
      H1    -0.74625   -5.83015  -12.20282
       H     7.54205  -11.73351  -11.42089
       O     7.36616  -12.68929  -11.51960
      H1     6.57697  -12.71805  -10.99555
       H    11.25477   -9.57067  -10.25978
       O    10.50646  -10.12386  -10.43828
      H1    10.74335  -10.42440  -11.30972
       H     5.20147   -5.53316  -10.23495
       O     5.22216   -6.43942  -10.54288
      H1     5.42857   -6.86421   -9.64115
       H     0.08633  -14.69763  -10.72378
       O     0.83417  -14.53132  -10.16186
      H1     0.93460  -13.58039  -10.25004
       H     7.48921  -11.91149  -17.46317
       O     7.10626  -11.43999  -16.66515
      H1     6.88166  -10.59157  -17.07156
       H     3.03454  -16.18965  -14.62121
       O     2.42845  -15.41884  -14.51930
      H1     3.06572  -14.75247  -14.22308
       H    10.77359  -12.93089   -9.01410
       O    11.33676  -12.13142   -8.93321
      H1    10.73483  -11.60522   -9.56350

