180
frame 11 | Written by MDAnalysis XYZWriter (release 2.4.3)
       H    -9.53263  -15.44517   -0.91233
       O    -8.76429  -15.92475   -1.18476
      H1    -8.11049  -15.20734   -1.22487
       H     0.53626  -12.42212   -1.71468
       O     0.61434  -13.35076   -2.04954
      H1     1.32314  -13.74987   -1.52164
       H    -4.42735  -17.73884    0.10780
       O    -3.53241  -18.01962   -0.16544
      H1    -3.67967  -18.70623   -0.84255
       H    -3.39709  -14.51269    3.72358
       O    -3.47032  -13.57330    3.62147
      H1    -3.93780  -13.26278    4.39364
       H    -4.07398  -15.32785   -6.03092
       O    -4.50628  -15.64578   -5.15819
      H1    -4.04327  -15.13686   -4.49345
       H    -0.67487  -14.49271   -5.91468
       O    -0.47084  -15.40910   -6.11444
      H1    -0.20912  -15.80158   -5.27581
       H    -2.24111  -12.90308   -8.44238
       O    -2.76341  -13.41799   -7.79519
      H1    -3.22574  -12.73510   -7.28646
       H    -1.84678   -9.03472   -2.23389
       O    -2.41177   -8.29465   -1.98693
      H1    -1.95495   -7.49634   -2.25598
       H    -2.19298  -10.95305    6.39500
       O    -2.25911  -10.73043    5.44419
      H1    -2.20136   -9.77753    5.56963
       H    -8.85407  -13.01878    1.38955
       O    -8.54868  -12.15740    1.37187
      H1    -7.88825  -12.13680    2.09847
       H    -5.26316  -12.75581    2.45261
       O    -5.74075  -13.51410    2.09378
      H1    -5.06182  -14.18828    2.28265
       H    -5.44440  -10.07114    3.38669
       O    -5.81470  -10.58019    2.61256
      H1    -6.44830   -9.94625    2.26027
       H    -5.24839   -6.58370   -0.74424
       O    -5.29159   -5.80715   -0.22888
      H1    -4.46941   -5.83364    0.25406
       H    -9.14286  -11.52853   -1.20111
       O    -8.89201  -12.19019   -1.84575
      H1    -8.29225  -12.71934   -1.23984
       H    -3.62745  -10.36857   -7.86071
       O    -4.20828  -10.78040   -7.19443
      H1    -3.65312  -10.61454   -6.40161
       H    -1.87160  -11.46293   -2.36415
       O    -1.21870  -10.99557   -2.86469
      H1    -1.75291  -10.57981   -3.57646
       H    -2.34454  -10.25659    1.09186
       O    -1.96521  -11.11591    1.39665
      H1    -2.34144  -11.07504    2.27204
       H    -5.45983  -11.90106   -3.38908
       O    -5.66512  -12.83746   -3.37252
      H1    -5.90900  -13.12724   -4.26583
       H    -6.03602  -17.00416    1.74466
       O    -6.95664  -17.38075    1.94423
      H1    -6.80470  -17.88441    2.76358
       H    -4.34795  -16.97308   -1.41606
       O    -5.20510  -16.79531   -1.81172
      H1    -5.35411  -17.57451   -2.34477
       H     2.69727  -15.42215   -2.53342
       O     2.31173  -16.23116   -2.19097
      H1     1.68224  -16.57545   -2.86418
       H    -6.95669   -6.36297    0.54714
       O    -7.84734   -6.67248    0.80003
      H1    -7.87088   -6.45521    1.72804
       H     0.72329  -11.86629    2.22524
       O     0.42811  -12.53216    1.59591
      H1    -0.52702  -12.41213    1.64527
       H    -3.77340  -17.82506    3.52511
       O    -3.19215  -17.05102    3.76601
      H1    -2.27914  -17.28047    3.65994
       H    -0.18272  -11.78789   -7.15384
       O    -0.18284  -10.99475   -7.75165
      H1     0.67227  -11.05402   -8.17180
       H     0.77231  -12.51929   -5.02601
       O    -0.09455  -12.70658   -5.41480
      H1    -0.74873  -12.33032   -4.79841
       H    -2.98127   -7.73627   -0.25009
       O    -2.96506   -7.39758    0.66153
      H1    -2.46047   -6.55362    0.58880
       H     3.67051  -10.55922   -0.34540
       O     3.42514  -11.33550    0.17860
      H1     4.27638  -11.70854    0.38339
       H    -8.04681  -11.31040   -3.13614
       O    -7.93221  -10.41166   -3.49758
      H1    -8.35160   -9.98121   -2.72947
       H     0.30254   -8.86469    2.31405
       O     1.17102   -9.01621    1.91866
      H1     1.55163   -9.60803    2.58480
       H     1.15628  -11.27673   -0.14206
       O     0.72408  -10.79911   -0.85640
      H1    -0.19337  -10.97193   -0.54055
       H    -3.61536  -12.85581   -1.16215
       O    -3.28744  -11.97185   -1.05925
      H1    -2.77027  -11.93622   -0.24080
       H     1.20840  -14.22940    2.55621
       O     1.97867  -14.50779    3.11361
      H1     1.80387  -15.40686    3.41463
       H     3.68803   -8.88306   -3.29488
       O     2.80851   -9.28119   -3.16725
      H1     2.57597   -9.01873   -2.25689
       H    -6.23889  -10.28759   -6.94719
       O    -7.08364  -10.52133   -6.56504
      H1    -6.93681  -11.32740   -6.08182
       H    -6.47242  -13.19940   -0.58423
       O    -6.74435  -13.94386   -1.12938
      H1    -6.45770  -13.63762   -2.01796
       H    -7.22802  -13.83086   -6.53085
       O    -6.63853  -13.27455   -5.95733
      H1    -5.95426  -13.23128   -6.69133
       H     2.67206  -11.13927   -3.77160
       O     2.38257  -12.08218   -4.01023
      H1     1.95781  -12.37840   -3.19733
       H    -4.40067  -15.00623   -0.91737
       O    -3.56034  -14.70591   -0.45641
      H1    -2.93914  -15.14475   -1.01087
       H    -7.65315   -8.59850    0.91477
       O    -7.98161   -9.39123    1.45687
      H1    -8.18213  -10.08208    0.71776
       H    -1.53472   -7.53340   -6.11459
       O    -2.43511   -7.53758   -5.77412
      H1    -2.65446   -6.62347   -5.83079
       H    -0.44165   -6.54338   -3.40802
       O    -0.95896   -6.07784   -2.74356
      H1    -1.34981   -5.32636   -3.18108
       H    -6.34893  -14.08501    5.33101
       O    -6.89763  -14.23659    4.57243
      H1    -6.40102  -13.94498    3.82265
       H     0.67286   -7.87018   -5.13995
       O     0.79378   -7.58647   -4.19438
      H1     1.47402   -8.22962   -4.00704
       H    -3.58411  -10.01356   -4.40742
       O    -2.83036  -10.15518   -4.96206
      H1    -2.61512   -9.24383   -5.22582
       H    -0.87435  -10.61810    4.87046
       O    -0.00431  -10.70610    4.39451
      H1     0.44734   -9.88546    4.71180
       H    -0.87255  -15.01169   -1.54620
       O    -1.33251  -15.84103   -1.74733
      H1    -1.26015  -16.42592   -1.03316
       H     0.51104   -5.62863   -0.19326
       O    -0.26283   -5.84485    0.33610
      H1    -0.06529   -6.78647    0.53746
       H    -3.74826  -16.34435    2.20917
       O    -4.56176  -16.02586    1.67054
      H1    -4.17688  -15.53329    0.90961
       H     3.12895   -7.40520   -0.10597
       O     3.07830   -8.36575   -0.33147
      H1     2.27020   -8.64093    0.13738
       H    -5.16608  -10.02819   -2.42270
       O    -5.07730  -10.08559   -3.41548
      H1    -6.04291  -10.12415   -3.58740
       H    -3.76355  -11.54069    5.42542
       O    -4.56727  -12.08886    5.56036
      H1    -5.30800  -11.51172    5.30952
       H    -5.34545   -8.18560   -2.92710
       O    -4.80460   -7.50782   -2.51637
      H1    -3.93582   -7.96253   -2.46808
       H    -4.99274  -11.42999   -0.63808
       O    -5.90530  -11.31627   -0.34667
      H1    -5.88812  -11.27206    0.65113
       H     3.34437   -9.90775    2.95841
       O     3.01514  -10.79468    2.88146
      H1     2.94231  -10.91166    1.91333
       H     0.02550  -15.05048    4.88912
       O    -0.95829  -15.06040    4.73950
      H1    -0.96825  -14.11072    4.58039
       H     0.01458  -17.56733   -4.30508
       O     0.20589  -16.79060   -3.75630
      H1    -0.58990  -16.68371   -3.16583
       H    -4.93298   -4.19473   -3.13721
       O    -4.89334   -4.91477   -3.80570
      H1    -5.00372   -5.69964   -3.18644
       H    -7.30995  -16.65379   -6.34490
       O    -7.09166  -16.48091   -5.41749
      H1    -6.25778  -15.97028   -5.53855
       H    -1.25479   -6.80572    2.88802
       O    -1.31676   -7.74957    2.76409
      H1    -1.91105   -7.80590    2.05263

