180
frame 11 | Written by MDAnalysis XYZWriter (release 2.4.3)
       H   -15.28534    7.19458   -1.61966
       O   -15.50292    6.33409   -1.09842
      H1   -15.72942    5.71797   -1.75933
       H   -10.44759    8.62107   -3.02654
       O   -10.44851    7.66922   -2.81169
      H1   -11.28245    7.49861   -3.26970
       H    -8.91320    2.95573   -1.20763
       O    -9.33837    2.91584   -0.35300
      H1    -8.79081    2.29669    0.08207
       H   -13.49787    3.33364    3.17090
       O   -14.19260    4.01954    3.19325
      H1   -13.90523    4.70189    2.52298
       H   -13.23870    4.12621   -1.46105
       O   -13.31053    3.59575   -0.69801
      H1   -14.24107    3.66583   -0.37631
       H   -11.08408    0.48164   -1.75380
       O   -11.74905    1.08378   -1.34626
      H1   -11.37065    1.93779   -1.61143
       H   -12.21797    5.32593    5.33184
       O   -12.98106    4.77043    5.51073
      H1   -13.38505    4.65935    4.59737
       H   -12.44492    1.76726    6.50272
       O   -11.74657    2.27320    6.00435
      H1   -12.23471    3.01634    5.70003
       H   -12.89384   12.22987   -1.62656
       O   -12.34284   12.09272   -0.86395
      H1   -12.80064   11.29852   -0.50061
       H   -11.49006    0.36772    4.95944
       O   -11.71682   -0.43670    4.50192
      H1   -12.32900   -0.21338    3.83303
       H   -11.30178   10.81418    1.82646
       O   -10.56494   11.34688    1.49978
      H1   -11.00439   11.86815    0.79467
       H   -15.62163    7.12119    5.87090
       O   -15.67677    8.02147    6.22159
      H1   -15.99114    8.49251    5.42654
       H   -11.52364    0.45366    0.12661
       O   -11.42546    0.02852    0.98687
      H1   -10.53551   -0.31758    0.86326
       H    -9.97231    6.53863    3.25017
       O    -9.43989    5.76831    3.20793
      H1    -9.85126    5.41602    2.39135
       H   -17.05801   10.42521    5.03558
       O   -17.38701    9.52688    4.83821
      H1   -17.04240    9.38218    3.93493
       H   -17.89200    7.25828    5.78960
       O   -18.54745    7.04764    6.44748
      H1   -18.98890    6.22304    6.14342
       H   -13.97416    9.91714   -2.65178
       O   -14.48469    9.50553   -1.93844
      H1   -13.82214    8.89602   -1.52692
       H   -15.72233    0.93584    0.58958
       O   -16.06141    0.18703    0.06406
      H1   -15.45335   -0.54036    0.25322
       H    -9.74838    9.56206    4.11662
       O   -10.66993    9.66433    4.44695
      H1   -10.68379   10.51071    4.84010
       H   -15.43001   11.38865   -1.70755
       O   -15.97396   12.17567   -1.83152
      H1   -16.84594   11.79156   -1.65010
       H   -13.09497    7.24236    8.35783
       O   -13.44786    6.48817    7.86555
      H1   -13.10088    6.75371    6.95122
       H   -12.95461   -0.63097    1.40722
       O   -13.89429   -0.77328    1.66202
      H1   -14.10401   -0.09517    2.35189
       H   -15.30078    3.38427    1.90411
       O   -15.52675    3.09462    1.03036
      H1   -16.31677    3.67498    0.82162
       H   -14.29545    4.20996    7.33768
       O   -15.03685    3.85642    7.85978
      H1   -15.44195    4.69265    8.19733
       H   -13.52872   11.41678    2.44117
       O   -13.12335   10.52561    2.37580
      H1   -13.94466    9.94932    2.21430
       H   -18.24640    2.98756    1.17918
       O   -18.23365    3.93260    0.98423
      H1   -18.96527    4.21338    1.53792
       H   -15.05840    2.67307   -6.34888
       O   -15.73743    3.25041   -5.97707
      H1   -15.72678    3.24266   -4.99193
       H   -14.22573   11.40507    7.59453
       O   -14.70570   10.62468    7.93516
      H1   -14.53056    9.88695    7.36692
       H   -11.15574    2.07568    2.17974
       O   -11.13492    2.60876    2.99177
      H1   -10.15872    2.63088    3.20395
       H   -17.67261    0.66297    0.53751
       O   -18.28536    1.11484    1.16844
      H1   -17.78216    0.93886    1.98588
       H   -15.05382    0.83799   -1.25911
       O   -14.88962    1.35352   -2.06258
      H1   -13.97730    1.73407   -1.77423
       H   -15.99408    6.35134    0.65914
       O   -15.65247    6.43981    1.58420
      H1   -14.74123    6.24000    1.40191
       H   -18.11055    2.27563    3.91167
       O   -17.24211    1.80361    3.85598
      H1   -17.35588    0.99395    4.38731
       H   -16.83181    6.40861    7.77137
       O   -16.27865    6.18573    8.55297
      H1   -15.41425    6.52906    8.21867
       H    -9.70347    5.53341    0.40491
       O   -10.58148    5.18586    0.56734
      H1   -10.32270    4.28137    0.38525
       H   -14.31933   10.44004    5.06283
       O   -13.36047   10.53395    5.21611
      H1   -13.06359   10.65079    4.32260
       H   -16.36240   13.94923    0.51616
       O   -16.64013   13.26980    1.20348
      H1   -15.78211   13.12067    1.58835
       H   -16.71547    5.08667    5.17718
       O   -16.60452    5.92802    4.77618
      H1   -16.64195    5.69894    3.83531
       H   -14.90834    0.11176    4.36290
       O   -14.66842    0.86909    3.76831
      H1   -15.46455    1.38154    3.65649
       H   -17.65163   10.32168    0.98587
       O   -17.63823   10.73935    1.89295
      H1   -17.22813   11.59322    1.63753
       H   -15.80221    2.96202   -2.89529
       O   -15.92434    3.89048   -3.11068
      H1   -16.87206    3.97434   -3.09647
       H   -15.71193    8.13415    2.05392
       O   -15.67537    9.04224    2.34658
      H1   -16.50253    9.48658    2.02538
       H   -10.00973    5.46664    5.14290
       O   -10.20814    5.67423    6.09758
      H1   -10.46054    6.64776    6.13310
       H   -16.47712    9.06129   -0.84629
       O   -17.31421    9.24131   -0.41674
      H1   -17.64318    8.30284   -0.25420
       H    -8.45404    6.01457   -1.33158
       O    -8.04091    6.47069   -0.54830
      H1    -8.21676    7.40036   -0.77446
       H   -11.83045    8.28645    2.14680
       O   -11.47045    7.53392    2.63626
      H1   -12.02836    7.56756    3.44025
       H   -12.34139    7.14171   -0.41825
       O   -12.55719    7.92167   -0.94149
      H1   -11.76806    8.04474   -1.49027
       H   -18.49789    4.88549   -4.45823
       O   -18.56827    4.92830   -3.50017
      H1   -19.47699    4.62735   -3.25625
       H   -13.98212   12.18926   -3.65083
       O   -13.29053   11.54464   -3.35810
      H1   -12.96527   11.18761   -4.27516
       H   -13.00957    8.52816    5.30488
       O   -13.17572    7.65763    5.06047
      H1   -14.06812    7.49032    5.30441
       H   -13.71275   13.68342    2.75122
       O   -14.34134   12.94717    2.68497
      H1   -14.74135   12.83155    3.59329
       H   -10.38893    8.92098    6.17868
       O   -10.50784    8.26677    6.88831
      H1    -9.63165    8.10947    7.29132
       H   -13.07614    8.89637   -5.19650
       O   -13.22950    8.06595   -4.74821
      H1   -14.20846    8.12194   -4.58855
       H   -12.68871    6.24488    1.71520
       O   -13.26734    5.52793    1.36198
      H1   -12.60188    5.02516    0.88395
       H   -13.34374    4.75239   -4.20469
       O   -13.61278    4.93423   -3.29289
      H1   -14.50568    4.49111   -3.36193
       H   -16.59719    0.99599   -2.82623
       O   -17.46987    1.15622   -3.20806
      H1   -17.91010    0.26918   -3.06857
       H   -10.93568   10.91723   -1.81245
       O   -10.32539   10.48688   -2.44928
      H1    -9.52866   10.43737   -1.95422
       H   -18.14034    5.59065    0.32674
       O   -18.19908    6.56867    0.27358
      H1   -19.13441    6.65764    0.01212
       H   -16.34986    3.52413    6.54744
       O   -17.13050    3.43747    6.01905
      H1   -16.85667    2.84125    5.34682
       H   -16.35916   12.88850    4.52674
       O   -15.89272   12.10125    4.74360
      H1   -16.02228   12.01278    5.72015

