180
frame 7 | Written by MDAnalysis XYZWriter (release 2.4.3)
       H    -1.43540   -9.37007  -14.57099
       O    -1.46417   -8.85827  -13.73458
      H1    -1.18051   -9.57133  -13.11513
       H    -1.75220   -2.86230  -12.92561
       O    -2.24426   -2.26472  -13.49560
      H1    -2.01462   -1.37129  -13.11431
       H    -3.60497    1.57142  -17.76231
       O    -2.88143    1.58779  -17.14202
      H1    -2.61577    0.61614  -17.14265
       H    -2.49825  -12.43589  -15.17539
       O    -2.75966  -11.86149  -14.45425
      H1    -2.54089  -12.47857  -13.67528
       H     9.68406   -6.78229  -18.30826
       O    10.52983   -7.20603  -18.26351
      H1    10.19365   -8.13865  -18.22571
       H    -2.73846  -10.87132  -18.76797
       O    -2.88034  -10.91967  -17.79272
      H1    -2.89046  -11.91226  -17.71801
       H     7.01142    0.58568  -18.74113
       O     7.02693   -0.30210  -19.11727
      H1     7.01501   -0.85167  -18.30266
       H     2.64394   -0.08163  -11.98282
       O     3.27009   -0.18877  -12.72007
      H1     3.88472    0.50959  -12.53518
       H     7.58135   -9.38334  -18.14089
       O     6.61803   -9.36992  -18.12590
      H1     6.35839   -9.91421  -18.85531
       H    -5.01567   -1.99998  -15.37017
       O    -4.52684   -2.32155  -16.11430
      H1    -5.20518   -2.38829  -16.78377
       H     2.27783  -13.44227  -17.62798
       O     2.89444  -12.81331  -17.28067
      H1     3.74276  -12.98085  -17.68858
       H    -1.35167  -13.65026  -17.10513
       O    -2.29475  -13.67143  -16.72711
      H1    -2.35184  -14.61957  -16.63411
       H     1.67914   -2.49795  -12.62653
       O     1.28947   -2.40446  -11.70698
      H1     1.91628   -2.89266  -11.05577
       H     3.82338   -7.68379  -17.74219
       O     4.24876   -8.47431  -17.31159
      H1     5.15224   -8.47441  -17.68915
       H    -4.31015   -6.17372  -19.58190
       O    -4.55311   -6.92559  -19.02402
      H1    -5.21416   -7.27863  -19.54811
       H     2.27882    1.88158  -18.13279
       O     1.91704    1.75607  -17.22780
      H1     1.01361    2.12614  -17.32389
       H     2.30989   -5.23512  -10.68555
       O     1.69843   -5.95456  -10.66952
      H1     1.13180   -5.75033   -9.89198
       H     5.34943    1.42294  -17.45104
       O     4.50333    0.98089  -17.60597
      H1     4.14310    0.91389  -16.70893
       H    -0.85260   -7.32206  -13.44300
       O    -0.33881   -6.57514  -12.98334
      H1    -0.13899   -7.01297  -12.14628
       H     9.38580  -10.43285  -18.72963
       O     9.30424   -9.72027  -18.06147
      H1     9.23382  -10.35520  -17.23992
       H     3.64989   -5.98590  -15.93764
       O     4.40535   -6.36396  -15.48135
      H1     4.54880   -7.17448  -15.91953
       H     1.83794   -7.89011  -11.45848
       O     2.24113   -8.75519  -11.70467
      H1     1.82710   -8.86393  -12.61027
       H     2.07051    0.45841  -15.81034
       O     2.69418   -0.14589  -15.55115
      H1     2.58867   -0.12534  -14.56358
       H    -0.30027   -3.47785  -17.23026
       O    -0.38586   -3.32098  -16.29276
      H1    -0.71364   -2.42831  -16.17343
       H     4.37662   -1.39379  -11.96731
       O     4.89395   -1.89177  -11.34622
      H1     5.44054   -2.29661  -12.03235
       H     8.62754   -6.90419  -14.77575
       O     8.01274   -6.31414  -15.18067
      H1     7.63284   -5.99744  -14.36845
       H    -1.71152   -1.25248  -17.48497
       O    -2.03936   -0.83630  -16.63628
      H1    -2.85949   -1.30552  -16.36069
       H    -2.72045   -6.97649  -14.40684
       O    -3.19459   -6.48638  -13.78697
      H1    -4.07340   -6.55612  -14.11065
       H     0.00920   -3.67776  -12.03912
       O    -0.85298   -4.09201  -12.04814
      H1    -0.50412   -4.98300  -12.29440
       H     1.44913   -8.38832  -16.87220
       O     0.97253   -8.16123  -16.03844
      H1     1.14372   -7.22519  -15.87581
       H     9.81670   -3.85441  -15.42646
       O     8.81351   -3.79095  -15.55730
      H1     8.71961   -4.74321  -15.77505
       H    -2.91341   -4.93390  -15.31320
       O    -3.32607   -4.82456  -16.17645
      H1    -3.53532   -3.88947  -16.33771
       H     1.73029   -9.81373  -19.08842
       O     0.90123   -9.25708  -19.20751
      H1     1.11918   -8.57985  -19.92605
       H     5.28593  -14.25507  -18.04701
       O     5.20906  -13.44171  -18.51683
      H1     5.78336  -12.88288  -17.93883
       H     1.90314   -6.17605  -18.58899
       O     2.82256   -6.56488  -18.51008
      H1     3.16145   -6.40887  -19.35618
       H     6.30210   -8.31272  -12.64323
       O     7.17311   -8.62501  -12.42885
      H1     7.54411   -8.70257  -13.29348
       H    -1.76500   -9.74710  -17.05075
       O    -1.48839   -8.93892  -16.62360
      H1    -0.55875   -8.92004  -16.54317
       H    -0.91421   -5.45188  -19.21540
       O    -0.30225   -5.40142  -18.43449
      H1    -0.69603   -5.98490  -17.81745
       H     6.55207  -11.03280  -17.04709
       O     6.38624  -11.91399  -16.74259
      H1     5.70276  -11.74434  -16.14876
       H     4.48230   -3.10053  -13.89867
       O     5.39279   -2.87463  -13.97544
      H1     5.56658   -2.91736  -14.95204
       H     0.27910  -14.16365  -18.53302
       O     0.09189  -13.48227  -17.92122
      H1    -0.03414  -12.76647  -18.57237
       H     0.71536  -13.22064  -15.42542
       O     1.45987  -13.64048  -15.07780
      H1     2.21990  -13.21187  -15.57302
       H     6.01018   -4.85373  -13.65908
       O     6.66333   -5.25900  -13.05296
      H1     7.31050   -4.54651  -12.90770
       H     6.68439   -6.39911  -17.21193
       O     6.22385   -5.96646  -17.98051
      H1     5.36669   -5.75665  -17.56980
       H     1.39448   -9.58277  -14.69219
       O     1.79070  -10.21480  -14.11451
      H1     1.03470  -10.65378  -13.76282
       H    -2.58842   -4.16705  -18.07670
       O    -3.17957   -3.80026  -18.70049
      H1    -2.79804   -4.15365  -19.50455
       H    -3.50045   -7.27407  -12.21757
       O    -3.75576   -7.73575  -11.39932
      H1    -3.43798   -7.10978  -10.69654
       H    -1.14643  -11.32414  -11.82198
       O    -0.26594  -10.97432  -12.02747
      H1     0.19619  -10.95584  -11.16502
       H     4.29340   -7.75737  -13.50987
       O     4.44128   -7.68312  -12.53646
      H1     3.84824   -8.28409  -12.06073
       H    -6.43417   -3.63521  -18.12867
       O    -5.83364   -3.00993  -18.51273
      H1    -5.02953   -3.46590  -18.75814
       H     3.07142   -2.14141  -16.79999
       O     3.52499   -2.87895  -17.22258
      H1     2.96664   -3.18404  -17.91751
       H     3.03886  -11.60401  -18.39288
       O     3.15590  -10.71030  -18.78580
      H1     3.34097  -10.25084  -17.91164
       H    -0.47006    1.94208  -15.31537
       O    -0.07911    1.06872  -15.04795
      H1    -0.46475    0.34558  -15.65474
       H    -3.62453   -8.71796  -16.23013
       O    -4.58342   -8.70033  -16.44769
      H1    -4.67918   -8.15745  -17.23836
       H     3.84635    1.89840  -18.92222
       O     3.29917    2.38388  -19.54539
      H1     3.38914    3.27974  -19.20780
       H     7.94896   -1.25333  -15.48991
       O     7.65727   -1.60804  -16.35120
      H1     7.79542   -2.55921  -16.34289
       H     0.84680   -4.54709  -15.32039
       O     1.41024   -5.31980  -14.99003
      H1     0.81284   -5.67343  -14.31745
       H     3.79179  -12.89326  -12.98348
       O     4.39776  -12.32495  -13.55413
      H1     3.70118  -11.78592  -13.91635
       H    -4.78107   -5.60199  -15.45397
       O    -5.64229   -6.06472  -15.18813
      H1    -5.95675   -5.43825  -14.48434
       H     2.22128   -3.96498  -14.19190
       O     2.45342   -3.05083  -13.98588
      H1     2.25977   -2.68127  -14.87014

