180
frame 0 | Written by MDAnalysis XYZWriter (release 2.4.3)
       H    15.89665   -0.16230   10.42475
       O    16.71672    0.07538    9.97518
      H1    17.35349   -0.61666   10.08497
       H    17.93490   -8.79221   16.26886
       O    18.88594   -8.88923   16.57065
      H1    19.28465   -8.90046   15.64526
       H    14.24443    1.73227   13.02263
       O    14.66819    0.89504   13.34584
      H1    15.47938    1.14342   13.84292
       H    13.48194    2.28387   16.90866
       O    12.87469    2.49025   16.16582
      H1    12.39580    3.23767   16.57725
       H    11.36184   -2.00793   16.19162
       O    10.59756   -2.01609   16.80832
      H1    10.57331   -2.95882   17.02608
       H    18.03749  -14.24182   12.22954
       O    17.86156  -13.35582   11.84581
      H1    17.55347  -12.90965   12.62528
       H    11.91091   -4.81068   13.90498
       O    12.55315   -4.72527   14.59216
      H1    11.97006   -4.60325   15.39381
       H    19.55572   -5.63535   15.43225
       O    19.14245   -6.10522   16.19235
      H1    19.37477   -7.04181   15.95783
       H    17.83141  -10.34292   11.15641
       O    18.62095   -9.96438   11.62415
      H1    18.93081   -9.30702   11.00534
       H    14.30025  -13.62163   12.17549
       O    14.01327  -14.47067   11.75939
      H1    13.63563  -14.13888   10.94019
       H    15.23546   -6.74670   19.33241
       O    14.88719   -5.95134   18.87304
      H1    15.30369   -5.86386   18.07296
       H     9.12267   -1.29248   19.57848
       O     8.87352   -1.25746   18.65215
      H1     9.69696   -1.49317   18.17426
       H    16.21273  -12.81881   17.61511
       O    16.45496  -12.86614   18.53995
      H1    17.16032  -12.14143   18.52025
       H    12.89465  -10.83061   10.82658
       O    12.26272  -11.53168   10.91588
      H1    11.46912  -11.12430   10.47486
       H    13.71599  -12.01125   13.44281
       O    14.60044  -12.26877   13.16933
      H1    14.92462  -12.73835   13.89623
       H     8.43156   -6.90111   17.35806
       O     8.89357   -6.23998   17.93939
      H1     8.70678   -6.61009   18.79946
       H    11.35586   -0.81274   11.80895
       O    11.69839   -0.79891   10.91682
      H1    12.54891   -1.12094   11.24273
       H    10.55705   -6.22882   11.60736
       O    10.41263   -5.60189   12.38135
      H1     9.52014   -5.29161   12.23108
       H    15.19771   -6.22482    7.00156
       O    14.99669   -5.55206    7.65627
      H1    14.23374   -5.93079    8.13916
       H    18.38210   -6.09445   18.05957
       O    18.31655   -6.48562   19.01420
      H1    17.74618   -5.75198   19.38072
       H    12.64297  -13.61366   15.32082
       O    13.43508  -14.22115   15.30291
      H1    13.26383  -14.78022   16.05559
       H    16.96093   -5.27256   13.03648
       O    16.71322   -4.72357   12.28060
      H1    17.06617   -3.87155   12.63125
       H    16.79184   -1.72059   19.36888
       O    16.38485   -2.27303   18.69530
      H1    16.53067   -3.14298   19.08228
       H    17.68487  -15.36008   19.38082
       O    18.20355  -14.94488   18.66812
      H1    17.61185  -14.25392   18.40770
       H    16.96034   -7.29372   12.56590
       O    16.90153   -7.46942   13.51514
      H1    16.00697   -7.72893   13.52787
       H    14.58714   -0.40378   12.20647
       O    14.38077   -1.14134   11.61099
      H1    15.06390   -1.80410   11.92766
       H    17.72377  -10.68046    8.40934
       O    17.45683   -9.98085    7.76363
      H1    17.32908   -9.23892    8.43317
       H    18.11784    0.88861   11.87612
       O    18.55517    0.56468   12.70930
      H1    18.13330   -0.30846   12.94544
       H    16.35415  -11.71930   13.71839
       O    17.29089  -11.56304   13.83051
      H1    17.54657  -10.88970   13.21881
       H    15.73779   -9.64930   19.61432
       O    15.96141   -8.91025   19.02575
      H1    16.95067   -8.93575   18.93328
       H    17.22865    1.03205   16.08551
       O    17.03741    0.29546   16.73472
      H1    17.91416    0.00420   17.06956
       H    11.54556    0.31697   14.51936
       O    12.38079   -0.08100   14.21399
      H1    13.08350    0.52056   14.49297
       H    17.22321   -5.01610    7.10391
       O    18.11342   -5.36028    7.48029
      H1    18.61069   -5.28522    6.64039
       H    15.92102    1.24578   17.63764
       O    15.05815    1.50473   17.97862
      H1    14.75180    0.59925   18.10930
       H    18.83823  -12.49715   10.32038
       O    18.83883  -12.44345    9.32817
      H1    19.69851  -11.93641    9.20119
       H    16.97783    2.80901   14.67278
       O    17.01239    1.83744   14.68565
      H1    17.59443    1.77288   13.95817
       H    15.85740   -6.39471   15.58349
       O    16.37611   -5.79084   16.20748
      H1    17.35007   -6.08052   16.19269
       H    15.98754   -9.49090   17.42029
       O    15.96883   -9.72358   16.51359
      H1    15.58744   -8.91295   16.16623
       H    10.58825   -6.93606   13.35292
       O    11.06189   -7.69768   13.87430
      H1    10.41832   -7.93560   14.51470
       H    11.32386   -5.02449   17.82522
       O    10.96516   -4.87155   16.98373
      H1    10.14148   -5.36097   17.14809
       H    14.80772   -2.22434   15.77000
       O    15.73660   -1.94566   15.54558
      H1    15.87572   -1.08593   15.97348
       H    16.07154   -6.49927    8.90237
       O    16.29627   -7.41691    9.10354
      H1    16.79558   -7.31944    9.88119
       H    12.79376   -3.06991   15.01487
       O    12.96096   -2.31452   15.59775
      H1    12.70257   -1.57991   15.01284
       H    19.44596   -1.46334   10.08242
       O    18.61441   -1.93805   10.03699
      H1    18.69086   -2.49612    9.25374
       H    18.67839  -10.69135   17.33348
       O    18.69307  -11.22181   18.11287
      H1    18.43991  -10.59127   18.80730
       H    17.70046   -5.69938   11.22262
       O    18.15024   -6.54990   10.97602
      H1    18.49038   -6.33504   10.09726
       H    16.01190  -11.52878   10.47499
       O    16.16831  -10.53818   10.43393
      H1    15.36479  -10.25132   10.91783
       H    11.22647   -6.62041    9.45469
       O    10.85172   -7.22855   10.14229
      H1    10.36648   -7.86970    9.61086
       H    11.78039   -6.82661   18.15046
       O    12.27946   -7.17410   18.92307
      H1    13.19239   -7.07227   18.69353
       H    10.33357   -8.55494   12.51817
       O     9.45571   -8.94015   12.26141
      H1     9.68408   -9.52458   11.51426
       H    15.75633  -11.54337   16.16745
       O    15.71386  -12.54638   16.00460
      H1    14.71425  -12.78631   15.96080
       H    13.75446   -9.19698    9.94498
       O    13.63236   -9.27550   10.89976
      H1    13.49600   -8.34076   11.22541
       H    13.68157   -7.70707   14.92996
       O    14.47251   -7.13435   14.81761
      H1    14.18208   -6.28401   14.50980
       H    11.52789   -9.59287   18.42441
       O    11.21326   -9.81127   17.54709
      H1    10.83348  -10.73183   17.68713
       H    13.41555   -1.72302   17.84152
       O    13.65940   -1.29566   18.64755
      H1    14.58208   -1.56606   18.88524
       H    18.74128   -2.68110   13.18445
       O    17.82861   -2.52617   13.35267
      H1    17.74436   -2.52453   14.33965
       H    11.99186   -4.51715    8.73941
       O    12.20235   -5.38874    8.49415
      H1    12.27924   -5.24862    7.52706
       H    12.10913  -14.61605   18.02001
       O    12.16229  -13.63704   18.24037
      H1    12.90984  -13.57535   18.90384
       H    17.56102   -3.86126   16.37190
       O    18.24894   -3.12442   16.24397
      H1    17.79081   -2.36811   16.59518
       H    14.16575   -9.44473    7.20056
       O    14.13777   -9.14310    8.08924
      H1    14.96919   -8.71980    8.20077

