180
frame 9 | Written by MDAnalysis XYZWriter (release 2.4.3)
       H   -15.49680    1.00991   -9.59111
       O   -15.93728    1.74371   -9.23243
      H1   -15.93884    2.41696   -9.92198
       H    -9.45087   10.30864  -12.26271
       O   -10.07490   10.04433  -12.92596
      H1    -9.63310   10.49808  -13.68765
       H   -12.99026    8.28839  -10.96624
       O   -13.15075    7.87018  -10.11992
      H1   -12.31901    8.09166   -9.67906
       H   -12.69842    4.18139  -11.60000
       O   -13.00231    3.80417  -12.45307
      H1   -13.41174    4.52691  -12.96906
       H    -9.19791    6.19297  -10.86950
       O   -10.08236    6.47548  -10.63094
      H1   -10.51594    6.71849  -11.43263
       H   -12.69435    5.00198   -8.47301
       O   -13.23419    5.40462   -7.76121
      H1   -13.57469    4.68958   -7.25935
       H    -8.44583   -0.75907  -17.97649
       O    -8.28584   -0.42756  -17.09981
      H1    -8.57823   -1.16077  -16.53890
       H   -11.95855    9.61679  -12.78228
       O   -12.71620    9.06488  -12.57972
      H1   -12.40909    8.24220  -12.90462
       H   -15.70665    3.25312  -13.56566
       O   -16.16685    2.58553  -13.04798
      H1   -15.38579    2.01244  -12.92168
       H   -19.01873    0.64372  -17.95392
       O   -19.53362    1.46341  -18.09316
      H1   -19.51276    1.52867  -19.03934
       H   -13.60548   -1.13653  -15.50837
       O   -13.63760   -0.18007  -15.53042
      H1   -14.46299    0.07209  -15.09835
       H    -6.58288    1.86057  -15.08614
       O    -7.56325    1.88724  -15.20992
      H1    -7.71280    1.23719  -15.93600
       H    -6.10707    5.01926  -15.23442
       O    -6.24268    5.53254  -14.41709
      H1    -7.13036    5.33282  -14.09844
       H    -6.16068   -1.46951  -13.50900
       O    -6.62441   -0.89965  -14.16170
      H1    -7.24052   -0.46322  -13.57405
       H   -16.82160    5.47080  -14.41212
       O   -17.62825    6.00906  -14.71884
      H1   -18.41150    5.50662  -14.59360
       H   -14.74139    5.68821  -13.62387
       O   -14.88940    4.85919  -14.12373
      H1   -14.46778    5.03077  -14.98505
       H   -17.53166   -1.24251  -11.89761
       O   -18.43516   -0.81943  -11.92050
      H1   -18.27280    0.15593  -11.92159
       H   -10.62286    8.57536  -16.55438
       O   -10.24154    8.71305  -15.68643
      H1   -10.05821    9.67452  -15.75135
       H   -15.92538    6.57940  -16.88372
       O   -16.79946    6.95364  -17.14857
      H1   -17.38092    6.59067  -16.43154
       H   -11.71564   -3.33968  -11.66642
       O   -11.86157   -3.74152  -12.56356
      H1   -11.28088   -4.49871  -12.49593
       H    -8.37733    7.73712  -15.59356
       O    -7.40445    7.90550  -15.58517
      H1    -7.02637    6.99490  -15.51917
       H   -18.07795    8.00269  -19.96032
       O   -18.07440    8.43755  -19.12897
      H1   -17.72321    7.80391  -18.45443
       H    -8.48584   -0.48341  -11.00192
       O    -9.18723    0.16685  -11.25507
      H1    -9.67584   -0.42929  -11.85224
       H    -9.83879   -3.19557  -12.73442
       O    -9.40996   -2.29149  -12.70245
      H1    -8.85234   -2.46331  -11.93171
       H   -12.17961    9.97302  -17.86827
       O   -12.61490   10.84631  -17.55581
      H1   -11.96560   11.43670  -17.92421
       H   -15.17716   -1.05009  -18.48195
       O   -15.91040   -1.42790  -17.97196
      H1   -15.78634   -0.86452  -17.14346
       H    -8.87901    4.06164  -13.01186
       O    -8.68451    5.03931  -12.97074
      H1    -9.55150    5.41715  -13.33899
       H   -11.39143    8.05627  -19.00064
       O   -10.88780    8.71138  -18.48169
      H1    -9.92732    8.38122  -18.55500
       H   -12.94312    0.84920  -12.76832
       O   -13.67786    1.07891  -12.13840
      H1   -13.34042    1.99812  -12.03102
       H    -7.65219    7.25737  -18.91469
       O    -8.30115    7.74210  -18.31632
      H1    -7.76509    8.11601  -17.64719
       H   -17.70345   -1.13556  -17.40568
       O   -18.67968   -1.02096  -17.32328
      H1   -19.04254   -1.93977  -17.23982
       H    -7.32623    8.11203  -13.99599
       O    -7.00084    8.07822  -13.05869
      H1    -6.13858    8.44150  -13.12420
       H   -13.83034    0.10021  -10.78165
       O   -13.92221   -0.42987   -9.98703
      H1   -13.46662   -1.23082  -10.25216
       H   -17.77577    2.49497  -15.73692
       O   -18.13318    1.90721  -15.04801
      H1   -17.56990    2.25491  -14.28113
       H   -13.97711    4.23481  -19.79757
       O   -14.71399    4.86025  -19.88077
      H1   -14.75901    5.21813  -18.98996
       H   -13.76760    4.04608  -17.08563
       O   -14.50307    4.72656  -17.04004
      H1   -15.30724    4.19775  -17.31926
       H   -14.73071    7.71679  -12.52443
       O   -14.29722    6.83038  -12.44776
      H1   -13.80512    6.96671  -11.60348
       H   -13.53992   10.07390  -13.75647
       O   -13.52752   10.66990  -14.57240
      H1   -13.19508   10.06803  -15.25624
       H    -8.85910    1.56182  -12.50037
       O    -8.93760    2.32715  -13.02423
      H1    -8.37941    2.24397  -13.83989
       H   -12.00848    0.20063  -16.21554
       O   -11.07840    0.57755  -16.12506
      H1   -10.57780   -0.01370  -16.60806
       H   -11.03215    1.65548   -9.04959
       O   -10.54676    2.18681   -9.70833
      H1   -10.38258    1.53448  -10.39953
       H    -6.52414    3.81373  -17.08209
       O    -5.70967    4.10841  -16.68316
      H1    -5.27743    4.63756  -17.41155
       H   -10.72573    7.67688  -13.76628
       O   -11.02062    6.77884  -13.41801
      H1   -11.46626    6.39953  -14.20248
       H    -7.26349    5.54263  -11.29300
       O    -6.48076    6.05616  -11.19280
      H1    -6.50215    6.74150  -11.88883
       H   -11.19894    0.38850  -14.37486
       O   -11.31807    0.69000  -13.46616
      H1   -10.66379    1.44632  -13.37237
       H   -19.06085    4.94697  -12.36878
       O   -18.85676    5.33847  -11.53676
      H1   -19.74475    5.75136  -11.22017
       H   -11.65805    3.60731   -9.89090
       O   -12.08520    4.49101  -10.05694
      H1   -11.26450    5.00025  -10.30428
       H   -17.62185    4.33616  -17.22812
       O   -17.29574    3.45792  -17.41578
      H1   -17.96638    3.01728  -18.01060
       H    -8.22658    2.41214  -17.75152
       O    -7.87248    3.08798  -18.34461
      H1    -8.40108    3.83876  -17.99724
       H    -7.35671    3.57215   -8.78274
       O    -7.67302    2.76622   -9.19937
      H1    -8.61075    2.92027   -9.48502
       H   -12.47157   -3.54031  -14.31343
       O   -12.95266   -2.91102  -14.93336
      H1   -12.92705   -3.56962  -15.70233
       H   -14.89101   -0.50148  -12.69318
       O   -15.77220   -0.89523  -12.75700
      H1   -15.97709   -0.65738  -13.67340
       H   -10.41636   -3.20837  -15.23242
       O    -9.47063   -3.27706  -15.17612
      H1    -9.19618   -2.79280  -14.38479
       H   -10.18119    4.59800  -17.99867
       O    -9.46945    5.03309  -17.42181
      H1    -9.18070    5.76921  -17.93200
       H   -11.00970    5.87698  -16.19582
       O   -11.95469    5.86997  -15.95028
      H1   -12.35516    5.37930  -16.65743
       H   -12.45686    2.50318  -19.97272
       O   -12.12995    3.17033  -19.25054
      H1   -12.14685    2.50197  -18.50364
       H   -15.58448    9.91106  -11.61783
       O   -15.72662    9.01063  -11.99282
      H1   -16.68906    9.05345  -12.26443
       H   -12.22705    3.26877  -15.47242
       O   -12.19486    3.01929  -16.42166
      H1   -11.77729    2.13542  -16.38261
       H   -17.24322   -1.21395  -15.39125
       O   -16.62428   -0.44500  -15.29926
      H1   -17.27269    0.28747  -15.43600
       H    -5.27217    2.32526  -17.00260
       O    -4.89418    1.68760  -17.66476
      H1    -5.36398    1.99476  -18.46658

