180
frame 1 | Written by MDAnalysis XYZWriter (release 2.4.3)
       H    11.75218  -12.23457   -3.64996
       O    10.86632  -12.66127   -3.90493
      H1    10.84215  -12.26558   -4.81873
       H    14.49552   -9.35845  -12.85161
       O    14.34611   -8.86171  -13.67556
      H1    14.70350   -8.03983  -13.32683
       H    10.51087  -15.71392   -3.05819
       O    10.54674  -15.91752   -2.13340
      H1    11.29347  -16.51430   -2.05719
       H     7.43105  -17.93730  -10.94200
       O     8.34036  -17.99834  -11.39645
      H1     8.97107  -17.69288  -10.71144
       H     6.02162  -14.58263   -3.63917
       O     5.18132  -14.18040   -3.89108
      H1     5.52001  -13.38631   -4.26731
       H    13.05862   -8.49632   -7.58323
       O    13.89164   -9.00267   -7.46897
      H1    14.23555   -8.84083   -6.60791
       H    12.62611  -10.75175   -9.51445
       O    13.55265  -10.91257   -9.25328
      H1    13.77763  -10.12919   -8.72448
       H    14.68805   -3.99157   -5.76697
       O    14.53892   -4.78631   -6.30385
      H1    13.83944   -5.32550   -5.97706
       H    11.78146  -11.39194    0.30453
       O    12.07212  -10.76247   -0.37987
      H1    11.32187  -10.33665   -0.73671
       H    12.73405   -9.05615   -4.68567
       O    13.54492   -9.26423   -4.17540
      H1    13.43911  -10.18620   -3.99204
       H    12.99360   -8.21684   -1.26842
       O    12.58609   -7.84715   -2.04979
      H1    12.85484   -8.45508   -2.78889
       H     9.14104  -14.93212   -4.72808
       O    10.06089  -15.00176   -5.09288
      H1    10.40400  -14.19391   -4.67019
       H     8.68083  -15.36844   -7.53897
       O     9.50236  -15.92201   -7.63974
      H1     9.94878  -15.78146   -6.80742
       H     8.68098  -11.83854   -7.30422
       O     7.80244  -12.09608   -7.03515
      H1     7.39171  -11.27205   -7.31843
       H    10.45397  -10.18716   -9.71029
       O    11.10355  -10.27953  -10.42595
      H1    10.93474  -11.15742  -10.84866
       H     3.95477  -12.86431   -8.53905
       O     3.08180  -12.65307   -8.10323
      H1     3.40422  -12.34277   -7.22390
       H     7.28480  -15.81765   -3.27951
       O     7.52692  -15.27967   -4.07826
      H1     6.91894  -15.66276   -4.73149
       H    11.68843  -16.10833  -11.85196
       O    12.05578  -15.39351  -12.41928
      H1    12.97867  -15.38136  -12.12613
       H     5.27513   -7.64336   -6.00814
       O     4.47778   -7.56900   -5.33351
      H1     4.58372   -8.42166   -4.83330
       H    17.45858  -12.63280   -7.27991
       O    17.78419  -11.89863   -7.81892
      H1    17.93920  -12.35304   -8.62356
       H    16.24730  -13.85949   -3.20291
       O    15.58010  -13.18055   -3.34023
      H1    16.00573  -12.34093   -3.41554
       H     5.77839  -13.94250  -11.28517
       O     6.50447  -13.96437  -11.89675
      H1     7.28870  -13.73890  -11.32373
       H    11.05924  -11.92598   -7.20865
       O    10.85519  -11.56650   -6.34841
      H1    11.19728  -10.65269   -6.40609
       H    13.91489  -12.28959   -2.95301
       O    13.18155  -11.65894   -3.11236
      H1    13.19743  -11.22201   -2.25818
       H     6.98531  -13.71564   -7.45935
       O     6.78347  -14.44187   -8.01693
      H1     6.46460  -15.07551   -7.40923
       H    17.74357  -10.13742   -6.90180
       O    17.99691   -9.54377   -6.18039
      H1    17.58280   -8.68479   -6.26237
       H    10.90729  -17.53258   -9.79646
       O    10.28942  -16.77327   -9.99537
      H1    10.01331  -16.59184   -9.06734
       H    10.07088   -7.74568   -7.76551
       O    10.12208   -7.92338   -8.74786
      H1    10.38170   -7.04494   -9.08592
       H    10.50524   -4.58076   -8.88593
       O    10.91501   -5.39797   -9.30019
      H1    10.83608   -5.19480  -10.25160
       H    11.17164   -5.70893   -4.78118
       O    12.02293   -6.08786   -5.18266
      H1    12.55343   -6.07178   -4.38647
       H     8.87442   -8.40192  -10.32057
       O     7.99816   -8.67172  -10.57578
      H1     7.65116   -7.86019  -10.90473
       H    15.58284  -15.31695  -10.64477
       O    15.73423  -14.42135  -11.05860
      H1    15.34530  -14.51815  -11.92070
       H     9.15189   -9.44937   -4.29159
       O     8.65876   -9.43492   -5.15388
      H1     8.47237  -10.32951   -5.39429
       H     9.50328   -6.16540  -12.33198
       O    10.44302   -5.92195  -12.12495
      H1    10.88278   -6.73927  -11.89220
       H    16.82685  -10.52598   -8.92023
       O    16.90243   -9.59803   -9.27418
      H1    17.85168   -9.37196   -9.31514
       H    10.15753   -8.99417   -5.67881
       O    11.03708   -8.61779   -5.85365
      H1    11.10023   -7.86835   -5.26933
       H     9.38094  -12.58558   -2.85322
       O     8.70477  -12.74307   -2.20011
      H1     8.02038  -12.22186   -2.64896
       H     9.15958  -17.44038   -4.91076
       O     9.72563  -18.14749   -4.63801
      H1     9.45933  -18.91022   -5.17040
       H    14.39848  -15.43702   -5.08444
       O    14.15082  -14.55240   -5.42186
      H1    14.35754  -13.95881   -4.65812
       H    16.85495   -9.97801   -4.68610
       O    16.46134  -10.33497   -3.88988
      H1    15.75447   -9.70496   -3.74346
       H    11.88889  -13.53927   -8.57762
       O    10.91860  -13.47710   -8.67923
      H1    10.62466  -14.38832   -8.71624
       H     6.70887  -11.30211  -13.72508
       O     7.14979  -12.15697  -14.02377
      H1     7.02571  -12.67117  -13.17135
       H     9.17112   -9.19952   -1.97313
       O     9.77093   -9.78119   -2.46564
      H1     9.41610  -10.66103   -2.35765
       H    15.81532  -14.43189   -6.37632
       O    16.72409  -14.32103   -6.73057
      H1    16.49301  -14.68927   -7.62476
       H    11.47467   -9.65272  -14.46595
       O    10.88296   -8.98341  -14.16299
      H1    11.37126   -8.52964  -13.46917
       H     8.42582  -13.09092    0.83283
       O     9.38611  -13.17728    0.63016
      H1     9.29530  -12.96370   -0.30067
       H    13.86650  -12.70606   -8.20749
       O    13.52559  -13.58801   -8.26835
      H1    13.28216  -13.91073   -7.37320
       H     5.97931  -11.70423   -4.76129
       O     6.85750  -11.98878   -4.61925
      H1     7.23803  -12.02578   -5.50876
       H     4.64093   -9.52419   -9.59706
       O     4.61360  -10.03763   -8.75510
      H1     4.08009  -10.87650   -9.01199
       H    13.00186  -13.67864   -0.16063
       O    13.02483  -14.36626   -0.82187
      H1    12.08484  -14.38515   -1.11576
       H     6.32358  -17.24354   -6.22227
       O     6.11145  -16.29804   -6.17092
      H1     5.20985  -16.36839   -5.85965
       H    15.97386   -9.88906  -10.95969
       O    15.27334  -10.20214  -11.52017
      H1    14.76855  -10.51687  -10.78711
       H     5.96109  -12.01887  -10.26025
       O     5.44187  -12.61661   -9.69281
      H1     6.13418  -13.04332   -9.23940
       H     7.57312   -9.20556   -8.85876
       O     7.18396   -9.47010   -8.00286
      H1     6.32086   -9.79763   -8.34624
       H    15.65153   -7.04947  -11.29340
       O    14.95854   -7.28483  -10.66440
      H1    15.14059   -8.18945  -10.42341
       H    13.17745   -7.48700  -11.22889
       O    12.29732   -7.62936  -11.54704
      H1    12.20543   -8.56753  -11.37923
       H     7.38208   -8.20213   -6.91090
       O     7.19894   -7.47013   -6.27631
      H1     7.69318   -7.78911   -5.53416
       H    16.19478  -16.33444   -4.16245
       O    15.68608  -16.86320   -4.75289
      H1    15.41600  -17.56161   -4.14548
       H    10.98085  -13.12624  -10.62965
       O    10.58689  -12.96616  -11.54710
      H1    10.96474  -13.65379  -12.10313
       H     9.03866  -12.20580  -11.01534
       O     8.14428  -11.83494  -10.84700
      H1     8.18448  -10.93232  -11.25367

