180
frame 9 | Written by MDAnalysis XYZWriter (release 2.4.3)
       H     2.12842    4.60870   -9.10060
       O     1.71039    5.16915   -8.42457
      H1     1.10179    5.73323   -8.82214
       H    -2.11931   10.33005   -2.48438
       O    -2.22506    9.72907   -3.20529
      H1    -2.11755   10.30518   -4.00028
       H    -4.19642   11.31197   -8.07234
       O    -3.65697   10.87542   -8.75029
      H1    -2.74443   10.89708   -8.38033
       H     5.12679    8.63407   -5.82831
       O     4.22368    8.50583   -5.47887
      H1     3.76489    9.01275   -6.14273
       H    -3.57698   16.69032   -4.55018
       O    -2.78537   16.14430   -4.61108
      H1    -3.06886   15.28472   -4.25446
       H    -1.11779    3.67071   -3.64402
       O    -0.20197    3.45292   -3.44703
      H1     0.23255    4.28941   -3.14473
       H     2.08037   10.69900    0.31580
       O     1.12806   10.61220    0.64904
      H1     0.77218    9.93139    0.05058
       H     0.15597    8.16660   -9.07681
       O     0.53755    7.84372   -8.21127
      H1    -0.03541    8.35684   -7.60176
       H    -3.42943    4.23126   -3.52862
       O    -2.62612    4.60192   -3.92109
      H1    -3.01332    4.92204   -4.75641
       H     4.69659   11.82233   -2.67023
       O     5.52776   11.56977   -3.06889
      H1     5.35646   11.58663   -4.07175
       H    -5.84738   11.87597   -6.91814
       O    -4.98320   12.33537   -6.84387
      H1    -5.27146   13.25855   -6.60876
       H     0.22033   15.33581   -1.95698
       O     1.12623   15.70156   -2.10625
      H1     0.93162   16.65758   -2.00423
       H     0.16481    5.81999   -1.91582
       O     0.92914    5.99886   -2.46649
      H1     1.53593    5.28702   -2.27833
       H     1.63670    8.12745  -10.77754
       O     0.74897    8.56125  -10.91494
      H1     0.35686    8.02960  -11.65953
       H     2.82016   11.24379   -1.90710
       O     2.41366   12.07011   -2.40663
      H1     1.95237   11.58553   -3.10096
       H    -4.35759   12.97989   -3.05786
       O    -3.81572   13.66393   -3.46538
      H1    -2.88096   13.63918   -3.00405
       H     0.78046   13.98002   -9.32259
       O    -0.08363   13.63250   -9.10166
      H1    -0.44270   14.34985   -8.59837
       H     4.22679   11.21699    0.81262
       O     3.49436   11.32681    0.14119
      H1     3.13699   12.17875    0.49696
       H    -1.02323    8.12551   -0.70853
       O    -1.12178    8.30421    0.25033
      H1    -2.09236    8.24582    0.32386
       H     1.37150   12.86756   -1.32022
       O     0.68418   13.09575   -0.64679
      H1     0.65995   12.21990   -0.17174
       H    -3.93264   11.61001   -0.99845
       O    -4.67584   12.07748   -1.42847
      H1    -4.68938   12.94044   -1.01594
       H     1.00862   10.18826  -11.71332
       O     1.28986   10.77683  -12.46278
      H1     0.80909   11.60597  -12.35890
       H    -0.48433   13.81544   -1.68219
       O    -1.17895   14.10821   -2.34418
      H1    -0.64036   14.02826   -3.14090
       H    -0.01537   10.46337   -9.43598
       O    -0.73911   10.92553   -9.05362
      H1    -0.47955   11.89404   -9.08879
       H     2.08298   13.71880   -4.87821
       O     1.74939   13.16663   -5.62449
      H1     0.80449   13.44001   -5.60444
       H    -1.10013   14.22157   -5.95264
       O    -0.94851   13.73891   -5.15105
      H1    -1.76494   13.13813   -5.21279
       H     4.55156    7.09061   -4.29149
       O     4.66147    6.54342   -3.54519
      H1     5.61473    6.39932   -3.35314
       H    -2.13710   15.85171   -7.97028
       O    -1.73262   15.47331   -7.21591
      H1    -2.43157   15.71736   -6.50962
       H     4.05228   16.48943   -6.39221
       O     3.07576   16.41427   -6.28685
      H1     2.87035   16.15119   -7.23765
       H    -7.38633   12.21544   -3.98513
       O    -6.47731   12.42759   -3.83580
      H1    -6.07661   11.52503   -3.92631
       H     4.62123    9.46789   -9.55125
       O     5.37538   10.14314   -9.50379
      H1     4.90578   10.98627   -9.67804
       H     5.63492   11.43785   -6.77643
       O     6.38781   11.13777   -7.28898
      H1     6.05325   10.76008   -8.12350
       H     2.86518    6.76889   -0.71263
       O     2.71276    6.63891    0.23433
      H1     3.32505    5.89623    0.35205
       H    -4.82613   14.57608   -9.21335
       O    -4.07701   14.03669   -9.35209
      H1    -4.10841   13.36004   -8.68147
       H    -6.83252   14.44721   -6.11868
       O    -5.96226   14.73689   -5.73587
      H1    -5.88666   14.15248   -4.92818
       H    -2.07287    7.73332   -2.78088
       O    -1.90598    6.91386   -2.29179
      H1    -2.65926    6.33875   -2.48217
       H    -0.57283   13.13259  -11.99277
       O     0.15440   13.23629  -12.68721
      H1    -0.35675   13.77448  -13.32014
       H     3.51401    7.20935   -9.12454
       O     3.38885    7.78181   -9.92306
      H1     3.48887    7.23741  -10.69155
       H    -2.98460   12.80846  -11.96791
       O    -2.38367   13.44295  -11.53651
      H1    -2.81219   13.47887  -10.68087
       H    -1.83531   10.40308   -0.08408
       O    -2.26947   11.00768   -0.70628
      H1    -1.88762   11.86675   -0.50323
       H    -4.65890    9.28305   -8.91972
       O    -4.93760    8.38430   -9.03816
      H1    -5.87564    8.45097   -8.72084
       H    -5.10403   10.37955   -2.62922
       O    -5.26886    9.97613   -3.47571
      H1    -4.36388    9.79078   -3.62194
       H     1.09170    4.07253   -6.53121
       O     0.76549    3.22650   -6.20163
      H1     0.63550    3.43984   -5.26941
       H     0.63634    6.32071   -4.91695
       O     1.42179    6.40668   -5.51682
      H1     1.12498    6.74326   -6.37293
       H    -3.44715   12.38905   -4.42479
       O    -3.07050   11.67779   -4.97144
      H1    -3.87331   11.62972   -5.52397
       H    -4.25097   10.64157  -10.64663
       O    -4.72008   10.06489  -11.34464
      H1    -5.08731    9.42377  -10.74557
       H    -2.42767    6.81286   -8.05705
       O    -2.91379    7.30424   -7.39478
      H1    -3.53715    7.84389   -7.89621
       H     5.23084    8.96810   -1.50037
       O     4.48863    8.40840   -1.49026
      H1     4.75946    7.61728   -1.98259
       H    -3.43319    4.22944   -7.07672
       O    -4.04818    4.88999   -6.61165
      H1    -3.72672    5.82046   -6.80423
       H     1.62922    7.61819   -2.56100
       O     1.88397    8.55503   -2.36495
      H1     2.80429    8.57214   -2.05340
       H     4.16554   13.59518   -9.68454
       O     4.69493   12.84789   -9.98008
      H1     5.16226   13.20384  -10.70666
       H     2.29433   15.47023   -3.61173
       O     2.92433   14.95360   -4.10833
      H1     3.21133   15.50709   -4.83758
       H    -7.61552   10.18310   -7.72391
       O    -6.82191   10.75236   -7.75268
      H1    -7.20487   11.52366   -8.07074
       H     0.37096   17.79202   -7.61241
       O     0.14112   17.61672   -6.64286
      H1    -0.42589   16.82860   -6.81674
       H     1.43370    9.56644   -3.95319
       O     1.38368   10.41995   -4.43100
      H1     2.33026   10.63616   -4.45980
       H     3.63118   12.76960   -5.37278
       O     4.20009   12.09093   -5.65698
      H1     3.55548   11.41086   -5.87023
       H     2.34624    8.86266   -8.08135
       O     2.62080    9.53522   -7.43743
      H1     1.76758    9.71641   -7.00624
       H     1.54612   16.66467   -9.19473
       O     2.27114   16.16172   -8.81650
      H1     3.04407   16.72211   -8.86808
       H    -0.60939   10.94306   -6.95477
       O    -0.54766   10.13170   -6.44998
      H1    -0.07634   10.42001   -5.65413
       H     3.90171    6.92974   -6.65018
       O     3.99534    6.32512   -7.40018
      H1     3.07285    5.94305   -7.42348

