180
frame 3 | Written by MDAnalysis XYZWriter (release 2.4.3)
       H    -2.39029    4.02717    4.54352
       O    -2.92436    4.32171    3.78303
      H1    -3.67843    4.73859    4.33351
       H     1.08029   -1.46225    5.69198
       O     0.48136   -1.15274    4.94695
      H1    -0.39103   -1.40697    5.16235
       H     0.54367    5.41097    7.21967
       O     0.74688    4.68042    6.63708
      H1     1.07773    5.20772    5.88514
       H    -4.46537    6.70991   10.31322
       O    -3.71882    6.14116   10.06543
      H1    -3.60626    6.46206    9.14716
       H     6.05316    3.65204   12.05613
       O     5.92087    3.34670   11.16312
      H1     5.28468    2.62551   11.33513
       H     1.97105    1.21771    7.01120
       O     1.84006    0.59586    7.77173
      H1     1.80269    1.21549    8.53615
       H     5.73548    4.53809    9.87797
       O     5.32649    5.23132    9.30400
      H1     4.99948    4.62620    8.67760
       H     3.88336    8.27920    9.95860
       O     4.02356    8.63693   10.83972
      H1     4.21942    7.75522   11.22220
       H    -1.37416    4.32199   10.55333
       O    -1.52499    3.63386    9.88363
      H1    -2.30982    3.99667    9.40992
       H    -0.82916   10.19230    5.92789
       O    -1.36551    9.68380    5.30163
      H1    -0.73102    9.19823    4.77558
       H     1.36998    3.45416    7.96337
       O     1.82076    3.19267    8.83737
      H1     1.78025    3.98571    9.32450
       H    -3.69300    3.24507    7.78146
       O    -3.69915    4.17895    7.99056
      H1    -4.38338    4.26982    8.66638
       H     4.76563    2.52693    7.37721
       O     4.17050    3.34672    7.44312
      H1     3.55228    2.96597    8.09429
       H     0.13323   -0.36164    8.32995
       O    -0.62371   -0.94215    8.56842
      H1    -0.90016   -0.52501    9.34292
       H     4.55386    5.55824   12.29328
       O     4.16516    6.39144   12.59978
      H1     3.30584    6.17918   12.18648
       H     0.94577    0.16355   10.39755
       O     1.72503   -0.29605   10.69481
      H1     1.55711   -1.13741   10.25430
       H     1.10396    0.87009    4.59546
       O     1.95790    1.28671    4.85091
      H1     2.54862    0.60483    4.58131
       H     1.55186    5.66355   11.44864
       O     2.18724    4.89481   11.25426
      H1     1.78634    4.21259   11.80556
       H     1.03697   10.84444    1.39846
       O     1.49859   10.34842    2.13882
      H1     1.18671    9.43755    2.07555
       H    -3.44808    8.77212    3.10031
       O    -4.34965    8.88836    3.18978
      H1    -4.28364    9.85686    3.16812
       H     6.01844    5.28419    1.18355
       O     6.18974    5.40310    2.14818
      H1     5.48343    4.90804    2.62149
       H    -4.89677    1.12094    7.07712
       O    -4.63073    1.99717    6.76726
      H1    -5.16204    2.47078    7.42964
       H    -7.54697    4.30075    5.71729
       O    -6.95065    4.27165    6.51446
      H1    -6.14633    4.53140    6.04237
       H    -5.83364    6.16497    4.52744
       O    -5.42794    5.30439    4.47973
      H1    -5.58867    5.12534    3.52387
       H    -1.73297    5.41900    0.47943
       O    -2.33211    5.29436   -0.31018
      H1    -2.89476    6.05664   -0.49083
       H     0.87652   11.32671    7.16244
       O    -0.00152   11.68830    7.01260
      H1     0.16322   12.65087    6.81109
       H    -2.01776    6.45999   10.15702
       O    -1.09965    6.61111   10.52983
      H1    -0.64512    6.38788    9.69174
       H    -2.27355   -1.18078    4.47587
       O    -2.05272   -2.09412    4.77093
      H1    -2.20602   -2.49439    3.88626
       H     7.76049    7.63747    4.24174
       O     7.67067    6.71456    4.20486
      H1     6.79399    6.65889    3.78294
       H     2.72401   12.10889    8.19590
       O     2.88887   11.20056    7.86792
      H1     2.97069   11.50951    6.98917
       H    -0.78256    8.20334    0.91069
       O    -0.25962    8.03505    1.71250
      H1    -0.62794    7.19503    2.06320
       H     3.26170    3.24274    2.86432
       O     4.17747    3.01100    3.02465
      H1     4.25168    3.37769    3.90816
       H    -2.04923    3.66553    6.71601
       O    -1.56100    3.51401    5.88154
      H1    -0.69784    3.96596    6.04901
       H     5.16843    0.09265    6.32524
       O     5.36228    0.41358    7.19205
      H1     6.19579    0.85034    6.95553
       H     1.62120    2.58687    3.62529
       O     1.30461    3.35725    3.08391
      H1     1.41507    2.96512    2.18042
       H     2.25488    6.81457    0.89737
       O     2.33245    6.05811    1.50448
      H1     1.84709    6.32574    2.27013
       H    -0.23957    4.87639    2.45115
       O    -1.03413    5.37772    2.14212
      H1    -1.78969    4.95821    2.57864
       H     1.81126    4.22328   -1.16602
       O     1.20864    4.97593   -1.03685
      H1     1.33859    5.13391   -0.08810
       H     2.78645    5.61938    5.21869
       O     2.19790    6.11966    4.65257
      H1     1.91353    6.91379    5.16109
       H     2.39625    2.46187    0.12260
       O     1.82855    1.87127    0.61953
      H1     1.37781    1.33869   -0.10815
       H    -2.35132    1.12284    4.43774
       O    -2.55429    0.36601    3.85935
      H1    -3.54721    0.33746    4.05073
       H     4.72059   10.49401    6.27269
       O     5.07606    9.64986    5.98372
      H1     6.01322    9.65530    6.25098
       H     3.34030    0.73479   13.00020
       O     3.52275    1.09307   12.11058
      H1     2.82490    0.54480   11.64905
       H    -0.08953    1.97283   12.01063
       O    -0.44173    1.45955   11.26532
      H1    -0.82492    2.11323   10.70978
       H     4.39455    9.21466    4.30487
       O     4.12188    9.30571    3.41401
      H1     4.73588    8.83693    2.87149
       H     0.78864    7.32483    7.53060
       O     0.52412    6.72452    8.22225
      H1    -0.41569    7.08339    8.09719
       H     2.84387   -1.03695    7.13139
       O     2.83469   -1.91588    6.70550
      H1     3.74050   -2.09655    6.52115
       H     4.47872    8.35098    7.56204
       O     3.89273    7.80399    8.05580
      H1     4.58723    7.10848    8.17468
       H    -1.99367    5.08710   12.79315
       O    -1.03275    4.99955   12.55356
      H1    -0.99813    5.59191   11.75690
       H    -2.55520    8.59128    8.12352
       O    -1.88169    7.98552    7.66183
      H1    -1.62882    8.52446    6.88980
       H     0.47498    7.76789   11.61032
       O     0.95231    7.52393   12.41371
      H1     0.20573    7.10522   12.92574
       H     2.65857    8.37728    6.88397
       O     1.83407    8.54218    6.42127
      H1     2.08728    9.42025    5.97332
       H     7.00491    6.75984    5.68517
       O     6.50465    6.68926    6.47557
      H1     5.91821    5.90948    6.44179
       H     4.70597    4.00679    5.97386
       O     5.04904    4.49683    5.18291
      H1     5.90494    4.05375    5.18403
       H     2.17941    2.41118   12.87629
       O     1.26516    2.76347   12.88004
      H1     1.27623    3.22365   13.76010
       H     2.14874   10.16097    4.23809
       O     1.91675   10.77562    4.91989
      H1     1.09659   11.14363    4.45912
       H    -2.95520    1.89786    9.51968
       O    -3.66915    1.23665    9.66262
      H1    -4.37321    1.80865    9.96484
       H     2.15740    8.89573   10.74166
       O     1.43444    9.38262   10.23577
      H1     1.75268    9.37000    9.33574
       H    -4.90076    1.88188    4.88014
       O    -4.84388    2.08909    3.94241
      H1    -4.19009    2.77526    3.83791
       H     4.33169   -0.00360    3.42555
       O     4.31571   -0.15260    4.38843
      H1     4.32716   -1.09647    4.33348

