180
frame 4 | Written by MDAnalysis XYZWriter (release 2.4.3)
       H     8.65078    9.60754    1.71796
       O     8.79943    9.27817    2.65311
      H1     8.80914   10.11621    3.12074
       H     7.70330   10.72300   -9.43039
       O     7.07675   11.41357   -9.38452
      H1     6.87627   11.37482   -8.40152
       H     6.33829    3.72692   -4.83740
       O     6.79590    3.77127   -3.94673
      H1     6.73326    2.85072   -3.62361
       H     5.13655    8.01107   -3.59466
       O     4.89433    7.57887   -4.48850
      H1     4.48053    8.33068   -4.94487
       H    -1.62227    4.16756   -4.26871
       O    -0.67126    3.90449   -4.35111
      H1    -0.25211    4.64284   -3.90857
       H    -0.46680   11.15520   -0.27369
       O     0.47696   11.32160   -0.41135
      H1     0.50919   11.24977   -1.38824
       H     0.25674    8.47909   -7.82831
       O    -0.19128    8.14236   -7.00310
      H1    -0.32607    8.97311   -6.55619
       H     6.65466   13.66819   -2.47372
       O     7.03686   12.74764   -2.36803
      H1     7.16123   12.44803   -3.30155
       H     7.92654   13.09347    0.84461
       O     8.08198   12.10938    0.94210
      H1     7.49563   11.87269    1.63840
       H    -0.96219    6.66864   -3.57894
       O    -0.16079    6.33283   -3.22444
      H1    -0.46076    5.80741   -2.45136
       H     1.61105    8.57894   -9.63738
       O     0.66015    8.43238   -9.52861
      H1     0.57816    7.70465  -10.13757
       H     8.75410    4.15260   -4.39535
       O     9.63888    4.20255   -4.77433
      H1     9.63514    3.51275   -5.47603
       H    11.23908    7.06054   -4.58329
       O    10.30149    6.84948   -4.64979
      H1    10.25064    5.84863   -4.68497
       H     4.27223   11.56132   -1.75037
       O     3.77329   12.14910   -2.34009
      H1     3.12975   11.48581   -2.64412
       H     5.90798    5.59531    0.73826
       O     6.19987    4.88344    1.34641
      H1     5.35031    4.63219    1.75894
       H     5.12639   11.42516    0.15360
       O     5.53400   11.13085   -0.68515
      H1     5.92012   11.90257   -1.02660
       H     6.25484    7.33285   -6.71210
       O     5.98830    7.63834   -7.59943
      H1     6.26290    6.88087   -8.12602
       H     4.21232   10.99210    1.89359
       O     4.74267   11.83090    1.82503
      H1     3.97273   12.45297    1.90766
       H    -0.00194    9.05260   -0.71669
       O    -0.77626    8.49934   -0.43096
      H1    -0.80839    7.78714   -1.06494
       H     2.52802   13.24302   -1.77178
       O     1.76533   13.70098   -1.34994
      H1     1.56377   13.01848   -0.66382
       H     6.14607    1.74793   -0.32008
       O     6.03256    2.29964   -1.09033
      H1     6.06895    1.62300   -1.77742
       H    11.21939   13.59829   -3.96695
       O    11.56906   12.69026   -3.82805
      H1    10.86042   12.19467   -4.27297
       H     2.57006   14.09521   -5.04512
       O     1.95136   13.36879   -5.06421
      H1     1.39976   13.57056   -4.30403
       H     4.14862    6.11854   -2.89503
       O     4.14735    5.92356   -1.94503
      H1     5.05515    5.96469   -1.62387
       H     9.77963    5.02724    0.03441
       O    10.53771    5.66636    0.18852
      H1    11.18087    4.90854    0.22923
       H    10.16552    2.76726   -1.73815
       O    10.80041    2.68253   -2.49439
      H1    10.35094    3.23611   -3.15764
       H     4.68355   10.69938   -7.42225
       O     5.57785   10.60526   -6.95511
      H1     5.75491    9.67295   -7.20214
       H     6.91854    7.29599   -0.28939
       O     6.64481    6.55284   -0.83075
      H1     7.30646    5.89715   -0.64943
       H     3.62585    0.05370   -3.69387
       O     4.11469    0.42456   -2.93588
      H1     3.61331    1.17850   -2.72921
       H     7.42789    7.65201    3.53717
       O     7.01878    6.78201    3.37021
      H1     6.93524    6.78262    2.46132
       H     3.84548   11.82662   -9.87714
       O     4.31908   11.00992   -9.70825
      H1     5.27961   11.27643   -9.78162
       H     4.68136   12.03255   -4.10626
       O     5.35626   12.17383   -4.79845
      H1     4.98150   11.79912   -5.58748
       H     7.94698    3.93988    0.57079
       O     8.29525    3.98676   -0.39253
      H1     7.47589    3.77222   -0.88705
       H     8.85015   13.09796   -1.11473
       O     9.72486   13.36533   -1.43134
      H1     9.46497   13.50664   -2.32556
       H     9.89082   10.64154   -5.63487
       O     9.69013   10.79590   -4.63985
      H1     8.88733   11.27384   -4.74548
       H     3.09488    7.44163    0.75937
       O     2.50775    6.73779    1.11057
      H1     3.10393    6.29292    1.69649
       H     8.00581    4.76169   -8.78752
       O     7.86241    5.71414   -8.97944
      H1     8.73381    5.89251   -9.37756
       H     5.57618    2.32190   -5.98087
       O     5.85842    3.18797   -6.30359
      H1     5.07615    3.76788   -6.32280
       H     1.02150    4.04979   -0.72754
       O     0.68650    4.90803   -0.45600
      H1     1.45485    5.12974    0.12577
       H     4.26791    7.89799   -9.10058
       O     3.45978    8.39573   -9.18306
      H1     3.86398    9.31813   -9.18525
       H     2.47867    2.39869   -0.07006
       O     2.03563    2.00432    0.65871
      H1     1.30003    1.47390    0.31326
       H     9.76849    9.18181   -2.16524
       O    10.18189    9.46258   -1.36849
      H1    10.68799   10.29811   -1.52130
       H     3.46135    9.94589    3.16598
       O     3.59034    9.46537    2.31427
      H1     2.67077    9.53326    2.08192
       H     9.11770    9.32171   -3.83331
       O     8.66357    8.69284   -3.19482
      H1     8.94523    7.86191   -3.59680
       H     7.02816    8.90013   -2.80449
       O     6.12763    9.12471   -2.48165
      H1     6.30666    9.76222   -1.75988
       H     0.67675    6.41940   -4.75249
       O     1.20639    6.29308   -5.61527
      H1     0.71329    7.00577   -6.12135
       H     7.71065    8.77688   -8.53340
       O     8.46349    9.00385   -9.11491
      H1     9.06333    9.40748   -8.51358
       H     8.36332    9.44347   -0.52909
       O     7.63691    9.30061    0.06984
      H1     7.26133   10.20304    0.04960
       H     4.33883    8.95436   -1.06629
       O     3.58886    8.30886   -1.02751
      H1     4.01960    7.47800   -1.35133
       H    11.68768    8.72522   -0.93682
       O    12.59633    8.65381   -0.63850
      H1    12.83358    7.72077   -0.66383
       H     8.67830   13.18636   -5.69386
       O     8.08596   13.04480   -4.99481
      H1     7.20038   13.14510   -5.38617
       H     3.67874    3.92213   -1.69654
       O     3.49054    2.97340   -1.35735
      H1     4.44517    2.76227   -1.12614
       H     1.19490    7.67325   -3.03024
       O     1.38868    8.48905   -2.47954
      H1     2.16602    8.17997   -1.95130
       H     3.34012   13.47568   -7.65079
       O     3.72562   14.34903   -7.52619
      H1     2.93478   14.89356   -7.72829
       H    11.07682    9.94538   -7.34832
       O    10.24983   10.40416   -7.31643
      H1    10.57581   11.33951   -7.10756
       H     0.67562   11.00615   -3.99853
       O     1.18153   10.88063   -3.14450
      H1     1.06043    9.88171   -3.09492
       H     2.20478   12.10243   -6.32856
       O     2.77891   11.56829   -6.92737
      H1     2.70181   10.63641   -6.54844
       H     2.85133    8.15656   -7.06629
       O     2.77805    8.82852   -6.35596
      H1     2.51310    8.33068   -5.58583
       H     0.09665   11.28842   -6.48472
       O    -0.05106   10.74385   -5.68538
      H1    -0.84860   11.16782   -5.31868
       H     2.47391    5.39327   -6.80374
       O     3.28368    5.07756   -7.24864
      H1     2.92384    4.83446   -8.11352

