180
frame 10 | Written by MDAnalysis XYZWriter (release 2.4.3)
       H    -2.90508   14.11125    7.76928
       O    -3.19892   14.39870    6.90548
      H1    -2.34983   14.36820    6.44760
       H    -4.20410    8.39662    0.95419
       O    -3.76650    7.70826    0.50054
      H1    -3.45877    7.14229    1.22430
       H    -0.97698   10.11405   11.87289
       O    -0.46354   10.52932   11.16929
      H1     0.06886    9.80599   10.71114
       H    -4.02865   12.10535   12.33114
       O    -3.22167   12.02860   12.92057
      H1    -2.64658   12.69947   12.48545
       H    -5.67769   14.96799    4.58115
       O    -5.79613   15.78253    5.06478
      H1    -6.17747   16.44767    4.44362
       H    -7.30045    9.11243    7.34600
       O    -6.64742    9.81201    7.06011
      H1    -6.98353   10.61769    7.54924
       H    -2.73012    8.53881    6.15072
       O    -2.43318    8.89387    5.29121
      H1    -2.33704    8.06325    4.80649
       H    -1.23049   10.79948    8.67075
       O    -2.08867   11.13542    9.06258
      H1    -1.80265   11.11828    9.97454
       H    -4.26626   13.17299    6.57350
       O    -4.82962   12.50942    6.05564
      H1    -5.32880   11.95910    6.71275
       H    -5.86028   16.84515    7.48145
       O    -5.38761   16.15499    7.95414
      H1    -4.97513   15.64830    7.23646
       H   -10.19628   12.62800    2.36599
       O   -10.69231   13.27668    2.91208
      H1    -9.97737   13.82524    3.19689
       H    -4.80369   15.15438   12.07421
       O    -3.97513   15.18723   12.64929
      H1    -4.15791   14.86535   13.54372
       H    -9.13109    9.80288    9.53326
       O    -8.48490    9.61897   10.32507
      H1    -9.16843    9.46812   10.96194
       H    -9.56287   14.95010    0.71513
       O    -8.72785   15.47321    0.74676
      H1    -8.09331   14.90335    0.22065
       H   -10.82635   16.12637   10.56503
       O    -9.94593   16.32823   10.20429
      H1   -10.01350   15.59390    9.50165
       H    -1.36328   10.05671    1.70375
       O    -1.53524   10.19784    2.62611
      H1    -0.91305    9.67586    3.11877
       H    -0.12951   12.97786    4.17531
       O     0.04611   12.84893    5.14005
      H1    -0.83677   12.41176    5.36398
       H   -11.07278   13.90196    7.98553
       O   -10.40822   14.04402    8.68845
      H1   -10.58298   13.34673    9.35546
       H    -3.93375   14.26365    1.95204
       O    -4.88311   14.48163    1.66405
      H1    -5.26965   14.05143    2.41105
       H   -10.85869   10.68690    8.15066
       O   -10.77956    9.77576    8.42907
      H1   -10.59014    9.19954    7.69704
       H    -8.05176   10.97367    1.21747
       O    -7.10824   11.18039    0.93796
      H1    -6.60622   10.99662    1.78344
       H    -6.77331    6.16742    4.44413
       O    -6.61513    6.18482    5.37823
      H1    -5.98079    6.98164    5.50647
       H    -4.31628    8.85354    4.94980
       O    -5.27717    8.83353    4.80107
      H1    -5.66824    9.22143    5.61728
       H    -3.96236    9.62501    2.44396
       O    -4.88543    9.70583    2.12141
      H1    -5.36583    9.55957    2.95787
       H    -6.45679   15.20806   10.82070
       O    -5.54757   15.04473   10.61157
      H1    -5.46912   15.54520    9.73092
       H     0.74060   12.26363   -0.09347
       O    -0.07773   12.64458    0.19702
      H1     0.01323   12.60515    1.11627
       H    -3.36477   11.93723   -0.00719
       O    -3.90662   12.54480   -0.49624
      H1    -4.16165   13.17175    0.19966
       H    -1.18887   15.51466    5.26576
       O    -0.61052   15.16003    5.95721
      H1    -0.18876   14.30590    5.55508
       H    -9.63898    9.57777    4.32913
       O   -10.63624    9.48877    4.45118
      H1   -10.85029   10.36603    4.78334
       H     0.48402    9.35861    8.15521
       O     0.36369   10.33482    8.28383
      H1     0.95409   10.77541    7.67980
       H    -7.94334    9.82433    5.18418
       O    -8.00034    9.64707    4.23433
      H1    -7.56962    8.78243    4.08016
       H    -8.31712   10.76206   12.18525
       O    -8.25244   11.72462   12.34456
      H1    -8.03860   12.15045   11.52838
       H    -3.96063   16.46806    5.05445
       O    -3.41710   17.00527    4.43924
      H1    -3.90657   17.81463    4.12656
       H    -7.09142   13.28052    7.87758
       O    -6.84128   12.33307    8.05892
      H1    -6.50134   12.39052    8.94169
       H    -3.99197    9.70278   11.18059
       O    -3.81139    8.78641   10.88935
      H1    -3.79033    8.78700    9.96054
       H    -4.18933   12.66420   10.00802
       O    -4.91001   12.20301   10.45375
      H1    -5.32685   13.00541   10.83119
       H    -8.04556   15.20423   12.41033
       O    -8.10792   14.83478   11.52177
      H1    -8.87068   15.30552   11.20788
       H    -1.91639   12.93586    9.37742
       O    -2.49470   13.70338    9.62667
      H1    -1.99250   14.04600   10.46456
       H    -4.07903   17.23779    8.55131
       O    -3.44417   17.80564    8.98016
      H1    -3.78505   18.66003    9.17155
       H   -10.00910   12.75980    5.75091
       O   -10.79267   12.23770    5.48711
      H1   -10.88611   12.59292    4.58980
       H    -7.43997   17.65372    6.19418
       O    -6.74698   18.14182    6.71782
      H1    -7.28603   18.61236    7.36529
       H    -1.90250    5.82756    4.34823
       O    -2.58079    6.40533    3.97824
      H1    -3.31851    5.75918    4.28312
       H    -6.07873   13.04567    4.67703
       O    -6.39872   13.40102    3.87643
      H1    -7.10810   13.93825    4.15222
       H    -7.55004    6.83056    7.03258
       O    -7.97046    7.59167    7.50410
      H1    -8.22615    7.30350    8.41690
       H    -8.86694   15.65639    4.30040
       O    -8.72159   14.98681    3.63102
      H1    -8.78156   15.50897    2.79443
       H    -1.03447   16.00474    9.36879
       O    -0.52638   16.74581    8.94664
      H1    -0.33448   16.32310    8.04187
       H    -7.48724   15.13062    7.24251
       O    -8.11351   14.44343    6.94891
      H1    -8.69775   14.32493    7.66696
       H   -10.63303   16.51099    6.37796
       O   -10.59458   16.37960    5.40400
      H1   -11.54503   16.41808    5.22196
       H     0.55539   16.48897    6.31378
       O     0.89219   17.35888    6.48317
      H1     0.01720   17.76827    6.51310
       H    -3.54597   10.04124    8.26194
       O    -3.83616    9.16274    7.92844
      H1    -4.81204    9.38300    7.69260
       H    -2.35840   18.21636    7.63752
       O    -2.08165   18.44681    6.73122
      H1    -2.68467   17.94036    6.19785
       H    -2.25728   12.81572    2.62724
       O    -2.33047   13.52138    1.91759
      H1    -1.47455   13.92038    1.76367
       H    -5.22374   17.51149    0.38921
       O    -4.96753   17.36441    1.29595
      H1    -5.17714   16.38739    1.40092
       H   -10.39921    8.35120    5.70199
       O   -10.48643    7.85201    6.52331
      H1    -9.56124    7.68274    6.81345
       H    -6.53982   13.18786    0.02473
       O    -6.99120   13.66559   -0.72192
      H1    -6.42471   13.37564   -1.52701
       H     1.45535   10.23021    5.33652
       O     1.92096   11.01187    5.64072
      H1     1.21687   11.73186    5.57253
       H    -3.23904   11.52066    5.90153
       O    -2.24056   11.57291    5.83202
      H1    -2.27381   10.66808    5.38481
       H     0.20428   15.24534    3.05781
       O     0.36851   14.31617    2.80094
      H1     1.29557   14.19705    2.68198
       H    -0.69294   16.85816    2.29649
       O    -0.69086   16.75227    3.24600
      H1    -1.63543   17.02701    3.54059
       H    -6.84781   17.45433    2.62152
       O    -7.21843   17.97412    3.31245
      H1    -8.16939   17.95065    3.20677

