180
frame 10 | Written by MDAnalysis XYZWriter (release 2.4.3)
       H     7.85490  -17.09781   -9.76169
       O     7.09953  -17.11471  -10.33464
      H1     7.50269  -17.36917  -11.14573
       H     0.29055  -13.84414   -6.10450
       O     0.71524  -14.71176   -6.28377
      H1     0.42569  -15.29241   -5.58364
       H    -2.19329  -13.04801   -8.38805
       O    -3.03742  -12.82553   -7.96547
      H1    -3.08114  -11.88876   -8.21345
       H    -2.68247  -10.57671  -14.13097
       O    -2.97256  -11.46117  -13.82222
      H1    -2.24424  -12.00130  -13.51307
       H     0.74227  -17.95547  -10.94111
       O     1.45405  -18.04218  -10.30890
      H1     1.27360  -17.32321   -9.72005
       H     3.58357  -19.17075  -16.00528
       O     4.32207  -19.77421  -15.98745
      H1     5.07076  -19.10352  -16.16032
       H     3.11261  -18.10844   -7.84953
       O     3.82615  -17.50770   -7.92393
      H1     4.41074  -18.04618   -8.52711
       H    -2.18277  -16.96158  -14.74700
       O    -1.68691  -17.68814  -15.19074
      H1    -1.04752  -17.97592  -14.46553
       H     5.53093  -15.92579  -13.62081
       O     4.66397  -16.22712  -13.28291
      H1     4.71684  -15.72483  -12.43453
       H     2.15522  -14.46604  -11.32771
       O     1.80338  -13.60250  -11.60247
      H1     0.91688  -13.66883  -11.28484
       H     2.11690  -13.32162  -15.56193
       O     2.65906  -12.76593  -16.14601
      H1     2.88354  -13.51255  -16.79302
       H    -0.91185  -14.98590  -16.60169
       O    -1.71823  -14.83901  -16.15407
      H1    -2.26689  -15.34966  -16.73905
       H     7.18213  -15.50831   -7.36273
       O     7.07978  -16.42205   -7.16971
      H1     7.64015  -16.57792   -6.41898
       H     7.42288  -17.88328  -14.39052
       O     7.02630  -18.07669  -15.29087
      H1     7.86625  -18.44779  -15.67768
       H    -1.00998  -16.00404  -12.46621
       O    -0.37393  -16.71911  -12.20532
      H1     0.10654  -16.75870  -13.05196
       H    -2.95687  -18.13541   -8.53738
       O    -3.83366  -18.14300   -8.91692
      H1    -4.05985  -19.06755   -8.72400
       H     2.42180  -13.18081   -9.71377
       O     2.23736  -13.05273   -8.77518
      H1     2.70483  -13.83093   -8.36028
       H    10.77810  -16.79004   -8.61965
       O    10.26077  -16.94615   -9.44800
      H1    10.84447  -16.57376  -10.10015
       H     1.32157  -18.76605  -13.23254
       O     0.43722  -19.17378  -13.35445
      H1     0.11177  -19.22691  -12.38080
       H     9.06899  -17.81057  -12.69108
       O     8.36043  -17.26542  -13.10396
      H1     8.89701  -16.49354  -13.35713
       H     0.07058  -11.00749   -7.35313
       O     0.01629  -10.49516   -8.15875
      H1     0.92664  -10.24040   -8.46487
       H     0.10339  -15.90839   -7.67884
       O     0.11527  -16.19863   -8.57979
      H1    -0.58862  -16.85349   -8.60715
       H     2.03603   -9.09144  -10.04184
       O     2.08667  -10.00750   -9.83387
      H1     2.26696  -10.41388  -10.65868
       H     0.50583  -12.03085   -5.36539
       O    -0.17308  -12.21355   -6.06717
      H1    -0.98943  -12.17665   -5.52203
       H     5.54072  -14.04340   -8.80005
       O     5.36899  -14.83768   -9.39518
      H1     5.46011  -15.61502   -8.79990
       H     7.35843  -12.03846  -13.72490
       O     7.47356  -12.45282  -14.56718
      H1     6.69235  -12.27242  -15.06932
       H    -3.79486  -15.31685  -13.48051
       O    -2.91900  -15.71872  -13.33061
      H1    -3.22211  -16.34547  -12.64253
       H    -1.65875  -14.33481  -12.83579
       O    -1.17885  -13.47080  -12.65258
      H1    -1.18614  -13.57708  -11.65410
       H     9.11026  -13.55801   -8.27368
       O     8.25762  -13.62739   -7.73534
      H1     8.61885  -13.24417   -6.89591
       H     5.87122  -17.74596   -5.67722
       O     4.92762  -17.55935   -5.40790
      H1     4.42765  -17.47018   -6.26330
       H     9.06173  -18.29157   -8.10301
       O     8.30982  -18.88139   -8.25101
      H1     8.07642  -18.89611   -7.30297
       H     1.59923  -18.19849  -17.78309
       O     1.40419  -18.07231  -18.68902
      H1     2.15442  -17.67985  -19.06676
       H     4.18308  -15.07175  -18.48024
       O     4.64397  -14.20922  -18.67243
      H1     4.90550  -14.00302  -17.78940
       H     2.28805  -16.95243  -15.18424
       O     2.34078  -17.44026  -16.05486
      H1     3.20087  -17.19475  -16.35284
       H     2.51446  -11.66564   -3.95600
       O     2.32368  -12.43737   -4.53807
      H1     2.24822  -13.14308   -3.84820
       H     2.20389  -14.76344   -6.59807
       O     3.23992  -14.78602   -6.69762
      H1     3.33968  -15.73018   -6.95654
       H     1.69698  -15.18708  -13.82906
       O     1.92420  -16.20091  -13.89432
      H1     2.82965  -16.19127  -13.55869
       H     8.95291  -13.57750  -14.05356
       O     9.38281  -14.36316  -13.63145
      H1     9.09369  -14.28470  -12.69844
       H     3.18324  -18.39593  -11.97233
       O     3.27061  -18.79918  -12.81897
      H1     3.96736  -18.22853  -13.18265
       H     5.63672  -11.70684  -16.78616
       O     5.37290  -12.51945  -16.32676
      H1     4.35239  -12.31322  -16.23498
       H     7.20842  -14.71748  -15.81604
       O     7.10798  -15.48511  -16.37495
      H1     7.14641  -16.28760  -15.80925
       H     8.62068  -19.30485   -5.38255
       O     7.81097  -18.72583   -5.42096
      H1     7.10070  -19.43473   -5.37035
       H     5.48717  -14.22783  -10.97430
       O     5.79758  -14.15209  -11.95678
      H1     5.37999  -13.29212  -12.18668
       H     0.37378  -13.37245  -14.25185
       O     1.26872  -13.65978  -14.13298
      H1     1.40007  -13.38569  -13.21060
       H     6.83419  -11.08509  -10.96855
       O     7.54621  -11.27677  -11.58792
      H1     7.80887  -12.21170  -11.36732
       H     1.15080  -10.71396  -13.67139
       O     1.49600  -10.85581  -12.77923
      H1     0.67140  -10.60322  -12.28483
       H    -0.41442  -15.04153   -9.70460
       O    -0.57481  -14.17124  -10.13424
      H1     0.05825  -13.63865   -9.59987
       H    -0.42739  -18.74372   -5.10056
       O    -0.39429  -17.91342   -5.63080
      H1    -1.33828  -17.85526   -5.85358
       H     2.79203  -11.73829   -7.81028
       O     2.91432  -11.16010   -6.98998
      H1     2.82313  -11.81696   -6.29176
       H     4.59800  -15.90281   -4.41642
       O     4.10192  -15.01540   -4.17235
      H1     3.79364  -14.80654   -5.08181
       H     3.78459  -15.80650  -10.05882
       O     3.24945  -15.98970  -10.80436
      H1     2.77046  -16.80417  -10.52228
       H    -1.77537  -10.73471  -10.84591
       O    -0.85223  -10.51331  -11.05869
      H1    -0.50544  -10.57921  -10.13871
       H    -0.27946  -18.77917   -8.28472
       O    -1.12670  -18.63293   -8.69926
      H1    -1.03889  -19.11358   -9.57136
       H     3.33026   -8.47707  -13.00621
       O     3.58103   -9.26361  -12.50973
      H1     2.73086   -9.74296  -12.57347
       H     8.27057  -13.90062  -10.39484
       O     8.25280  -13.84832  -11.33826
      H1     7.37958  -14.28688  -11.49919
       H     5.41076  -16.37555  -17.11916
       O     4.60082  -16.99472  -17.34115
      H1     5.13475  -17.74024  -17.76665
       H     2.96551  -12.35491  -11.85141
       O     3.91210  -12.02322  -11.73288
      H1     3.89173  -11.40132  -12.50192
       H     6.57888  -12.93135   -7.66381
       O     5.73631  -12.57045   -7.98310
      H1     5.22052  -12.37906   -7.16431
       H     5.11614  -10.66050  -10.27331
       O     5.79500  -10.39200   -9.64929
      H1     5.69418  -11.03599   -8.90259
       H    -3.90348  -18.65326  -12.05002
       O    -3.22910  -17.95913  -11.74675
      H1    -3.38946  -17.89939  -10.76773

