180
frame 3 | Written by MDAnalysis XYZWriter (release 2.4.3)
       H    10.55654   12.70075  -16.38563
       O    10.50843   13.57190  -15.90643
      H1    11.08035   13.42062  -15.11836
       H     7.15494   10.63230   -8.91505
       O     6.54590   11.37294   -8.85765
      H1     6.10254   11.14187   -7.97744
       H     3.85238   15.93419  -17.45336
       O     4.01989   16.16158  -18.37480
      H1     3.28548   16.61913  -18.75903
       H     8.12157   12.81388   -8.76420
       O     8.87887   13.21802   -8.36248
      H1     9.10839   13.92289   -9.00672
       H     2.30771   10.89890  -12.56948
       O     3.03629   10.62531  -13.18225
      H1     3.75685   10.48470  -12.56965
       H     7.31174   11.67865  -16.83418
       O     7.42862   10.90061  -17.39159
      H1     6.45978   10.94857  -17.58973
       H     6.67998    9.18590  -15.14278
       O     6.88079   10.04364  -14.79585
      H1     7.03025   10.50052  -15.60330
       H    15.93936   17.00119  -14.07394
       O    15.33279   16.69091  -13.35137
      H1    14.38723   16.99237  -13.65074
       H     7.99322   16.03856  -15.81169
       O     8.75358   16.37274  -15.21693
      H1     8.59257   17.27930  -14.93679
       H    10.31969   16.79243  -16.82056
       O    10.63563   16.13050  -17.39751
      H1    10.40135   15.34824  -16.88740
       H    12.06896   16.09200  -16.59175
       O    12.97233   16.01030  -16.26560
      H1    13.29209   15.11404  -16.42033
       H    10.26713    9.34728  -17.26983
       O    10.51126    9.22096  -18.18750
      H1    10.38575   10.18015  -18.48695
       H     1.97078   16.29251  -10.83533
       O     2.19064   17.20741  -10.83497
      H1     1.44346   17.40315  -11.48829
       H    11.26366   15.36419  -12.55572
       O    10.67278   14.85080  -11.97595
      H1     9.87100   15.26628  -12.24265
       H    14.43530   10.77217  -16.47382
       O    15.39577   10.76298  -16.25782
      H1    15.58536   10.05089  -16.91723
       H     7.39148   13.12358  -14.88614
       O     7.91599   12.90221  -15.68963
      H1     8.73411   13.31102  -15.40577
       H    10.89016   18.66643  -10.57197
       O    11.48802   18.03483  -10.14181
      H1    12.36206   18.15121  -10.62534
       H     1.18877   12.49124  -17.42405
       O     1.38479   13.39951  -17.22476
      H1     2.31679   13.28811  -17.00217
       H    16.63919   13.22761  -15.60153
       O    16.41210   13.98394  -16.14220
      H1    15.94249   13.58097  -16.92035
       H     3.74059   11.18928  -16.79800
       O     3.07200   11.04907  -16.16502
      H1     2.31333   11.13571  -16.74980
       H    11.76198   15.92087   -9.73290
       O    11.79404   15.47527   -8.88113
      H1    11.83135   16.24494   -8.35879
       H     1.66920   12.59411  -14.39430
       O     1.09612   13.31305  -14.62370
      H1     1.25139   13.36186  -15.55021
       H    13.48812   12.97342  -17.88375
       O    14.05632   13.76138  -17.81401
      H1    13.82881   14.32613  -18.54318
       H     7.91432   18.89685  -17.71176
       O     8.34367   19.77641  -17.44902
      H1     9.11899   19.78308  -18.04362
       H     3.55775   17.55803  -16.76837
       O     3.10342   18.40787  -16.87093
      H1     2.17792   18.14484  -17.05572
       H    12.71344   16.10325  -14.57728
       O    12.36552   16.25995  -13.67471
      H1    11.94357   17.12900  -13.80946
       H     3.84327   11.34925  -10.63291
       O     4.26943   10.50693  -10.35614
      H1     5.10407   10.95444  -10.10620
       H     9.23406   19.10630  -14.22182
       O     8.37582   19.11261  -14.69195
      H1     8.56470   19.45518  -15.58216
       H    14.60122   17.10231  -11.49975
       O    14.15769   17.46769  -10.76756
      H1    14.54881   16.94192  -10.10680
       H    14.98545   13.97102  -14.57752
       O    14.49605   13.70944  -13.84007
      H1    14.68323   14.46408  -13.31166
       H     9.71754   17.01461  -18.78320
       O     8.90110   17.28415  -19.29441
      H1     9.27214   17.61994  -20.14458
       H    10.97168    9.31479  -15.04415
       O    10.34420    9.96908  -15.48909
      H1     9.45310    9.72754  -15.17528
       H     0.63034   14.39030  -11.65265
       O     1.33672   14.62929  -12.22080
      H1     1.05555   14.07621  -12.99247
       H     6.03973    8.22529  -12.19922
       O     6.84671    8.69827  -12.31219
      H1     6.69489    9.36698  -12.99450
       H     6.43408   17.79062  -19.41000
       O     6.04094   18.65999  -19.14229
      H1     5.17237   18.29543  -19.05275
       H     4.81170   12.80359  -18.67713
       O     5.05850   12.46348  -17.76832
      H1     4.74811   13.16276  -17.17569
       H     2.66702   19.33358  -14.97450
       O     2.29367   18.95185  -14.12159
      H1     2.61737   19.55910  -13.44174
       H    12.96719   13.58230   -8.36909
       O    13.00204   12.63340   -8.38997
      H1    12.56310   12.39769   -9.20308
       H    10.08626   17.42822   -7.16841
       O    10.44370   17.84694   -6.34674
      H1    10.01237   17.14884   -5.68819
       H    11.38554   19.10405  -15.22794
       O    11.36125   18.92290  -14.26707
      H1    11.60029   19.75756  -13.83189
       H    16.51613   18.57129  -15.95779
       O    16.86358   17.86317  -15.33136
      H1    17.77280   18.29942  -15.22857
       H    11.39524   13.13820  -11.22036
       O    11.35803   12.22794  -10.98107
      H1    10.46611   12.03507  -11.25091
       H     7.67475   16.09604  -13.59429
       O     7.91961   16.24136  -12.64363
      H1     7.31023   15.69870  -12.13121
       H     4.10864   13.39428  -15.27383
       O     3.82913   14.01490  -15.95328
      H1     4.32028   14.82052  -15.67961
       H    11.42255   19.57189   -7.12166
       O    11.95657   19.79207   -7.87464
      H1    11.65327   19.14210   -8.56767
       H     5.39142   17.23703  -15.60815
       O     4.64481   16.71684  -15.24043
      H1     4.03171   17.39249  -15.01757
       H     5.96140   18.51094  -10.27311
       O     6.59631   18.96498   -9.78364
      H1     6.67426   19.81674  -10.25764
       H     6.12284   14.24852  -12.50298
       O     6.08277   14.42381  -11.55350
      H1     5.75628   15.30190  -11.62233
       H    13.10241   10.98783  -12.84456
       O    13.33010   10.35180  -12.11760
      H1    13.03381   10.91364  -11.36351
       H     9.09429   18.11083  -11.75177
       O     9.49792   18.96716  -11.86069
      H1     8.77205   19.52203  -12.15338
       H     2.83706   13.63207  -11.37482
       O     3.60416   13.10454  -11.19507
      H1     4.24811   13.82421  -11.21973
       H     3.57849   13.10217   -7.47590
       O     4.30148   13.63773   -7.92612
      H1     4.29528   13.27981   -8.82846
       H    13.88802   17.72925  -18.71764
       O    13.88593   18.04621  -17.79283
      H1    14.17826   17.25603  -17.29153
       H     6.88766   15.15233  -17.67724
       O     6.76869   15.19292  -16.67988
      H1     6.98200   14.28212  -16.44859
       H     3.97576   17.33306  -11.56769
       O     4.89046   17.39970  -11.76697
      H1     4.90079   17.96570  -12.52868
       H     7.83689   17.78953   -9.06738
       O     8.40008   17.29387   -8.40150
      H1     7.81360   16.57250   -8.16265
       H    12.19580   10.74300  -17.18854
       O    13.02297   11.21012  -17.34639
      H1    13.09884   11.15507  -18.30693
       H    11.18222   19.56000  -17.57026
       O    11.27107   18.71730  -17.04604
      H1    12.19856   18.43869  -17.26916
       H     4.52713   12.02037  -13.75770
       O     5.42967   12.32715  -13.76511
      H1     5.88680   11.50273  -13.93066
       H    13.06646   13.00532  -13.84426
       O    12.22279   12.53213  -13.78717
      H1    11.91640   12.51594  -12.88514

