180
frame 11 | Written by MDAnalysis XYZWriter (release 2.4.3)
       H    -2.07856   -4.34071    0.93711
       O    -2.99654   -4.10064    0.85574
      H1    -3.39948   -4.12212    1.73150
       H     0.28631    0.05005   -0.70768
       O    -0.07175   -0.47753   -0.02118
      H1    -1.03737   -0.55132   -0.25337
       H    -6.01026    2.52422   -4.37250
       O    -5.74863    3.46467   -4.32534
      H1    -5.38142    3.48928   -5.20620
       H    -2.33729   -5.88849    5.64727
       O    -2.58678   -4.92806    5.56298
      H1    -3.52615   -4.93737    5.90067
       H   -11.18834   -3.63056   -3.27097
       O   -11.45321   -3.11526   -2.51280
      H1   -12.26055   -2.53655   -2.80126
       H    -9.97558   -3.78054   -5.05897
       O   -10.95871   -3.89744   -5.07398
      H1   -11.01062   -4.82096   -5.37673
       H    -9.98598   -2.25053    0.20439
       O    -9.15511   -1.77521    0.46392
      H1    -8.55672   -2.49134    0.73408
       H    -1.84678   -9.03472   -2.23389
       O    -2.41177   -8.29465   -1.98693
      H1    -1.95495   -7.49634   -2.25598
       H    -8.91320    2.95573   -1.20763
       O    -9.33837    2.91584   -0.35300
      H1    -8.79081    2.29669    0.08207
       H    -2.67151   -0.63266   -3.90007
       O    -1.94766   -0.68460   -3.25444
      H1    -1.53459    0.18407   -3.35802
       H     1.09379   -5.37514   -1.98348
       O     1.65130   -4.81921   -1.37542
      H1     1.08842   -4.02958   -1.34800
       H    -5.24839   -6.58370   -0.74424
       O    -5.29159   -5.80715   -0.22888
      H1    -4.46941   -5.83364    0.25406
       H    -2.86408   -0.80054   -1.45415
       O    -2.68959   -1.02454   -0.49486
      H1    -3.34375   -0.49249   -0.00792
       H   -12.28848   -3.60487    1.71413
       O   -11.31896   -3.53426    1.55029
      H1   -11.03406   -4.23188    2.06152
       H    -4.72660   -1.15587    3.79822
       O    -4.62592   -1.50917    2.90180
      H1    -5.48965   -1.52045    2.55310
       H    -6.95669   -6.36297    0.54714
       O    -7.84734   -6.67248    0.80003
      H1    -7.87088   -6.45521    1.72804
       H   -11.52364    0.45366    0.12661
       O   -11.42546    0.02852    0.98687
      H1   -10.53551   -0.31758    0.86326
       H   -10.13281   -0.71468    3.38448
       O    -9.16299   -1.05555    3.17166
      H1    -9.20402   -1.45617    2.28537
       H    -4.08150   -3.15374    3.27700
       O    -4.04419   -4.12481    3.40711
      H1    -3.28148   -4.30082    4.01359
       H    -2.98127   -7.73627   -0.25009
       O    -2.96506   -7.39758    0.66153
      H1    -2.46047   -6.55362    0.58880
       H    -6.70372   -3.76677    1.59742
       O    -6.76465   -2.87959    1.26736
      H1    -6.00757   -2.84830    0.69798
       H    -8.62248   -1.33517   -3.39176
       O    -7.80775   -1.32593   -3.88032
      H1    -7.16669   -1.23197   -3.19024
       H    -2.13984   -2.61953   -3.43981
       O    -2.20408   -3.58043   -3.36341
      H1    -3.09145   -3.75456   -3.56371
       H    -1.15132    1.21592    3.78467
       O    -0.45877    0.51149    3.58743
      H1    -0.99261   -0.31335    3.50717
       H    -5.84156   -0.13684   -1.44914
       O    -6.31990   -1.00233   -1.59308
      H1    -5.58426   -1.61095   -1.37855
       H    -8.99852   -0.60420   -5.34031
       O    -8.96754   -0.54319   -6.31006
      H1    -9.06296    0.42450   -6.38525
       H   -10.83098   -6.24031   -0.50108
       O   -10.09089   -6.66498   -0.92280
      H1    -9.27501   -6.34812   -0.49137
       H    -5.65520   -5.05348    3.09746
       O    -6.52741   -5.07840    2.70567
      H1    -6.95933   -5.73162    3.29572
       H    -0.32161   -2.31481    3.07198
       O    -1.24288   -2.18578    2.83149
      H1    -1.17142   -1.65584    1.99349
       H    -5.37310    2.83441   -1.96248
       O    -5.66463    1.93257   -1.81631
      H1    -5.76370    1.93006   -0.87867
       H    -4.97339   -0.16848   -4.39414
       O    -4.30096   -0.77952   -4.65165
      H1    -4.33309   -0.57716   -5.61240
       H    -4.39657    3.36837   -0.34919
       O    -4.45168    3.43903    0.59861
      H1    -3.94076    4.28646    0.66681
       H    -4.31121    1.16740    4.66631
       O    -3.35210    1.14773    4.44716
      H1    -3.14399    0.25356    4.81347
       H    -7.32930   -5.05562   -6.35926
       O    -6.71120   -5.74493   -6.67098
      H1    -5.91318   -5.62791   -6.15160
       H    -3.97182   -3.11572   -0.47485
       O    -4.82497   -3.20235   -0.90789
      H1    -5.14296   -4.10231   -0.73026
       H    -7.13990    2.78291   -2.64073
       O    -8.02287    3.16710   -2.85569
      H1    -7.76512    3.81315   -3.55304
       H    -7.65315   -8.59850    0.91477
       O    -7.98161   -9.39123    1.45687
      H1    -8.18213  -10.08208    0.71776
       H    -2.01347   -4.15819   -5.12053
       O    -1.90969   -4.81519   -5.87729
      H1    -1.05992   -4.49400   -6.25779
       H    -1.53472   -7.53340   -6.11459
       O    -2.43511   -7.53758   -5.77412
      H1    -2.65446   -6.62347   -5.83079
       H    -0.44165   -6.54338   -3.40802
       O    -0.95896   -6.07784   -2.74356
      H1    -1.34981   -5.32636   -3.18108
       H     0.87453   -1.36582   -4.76345
       O     1.17167   -0.53861   -5.10102
      H1     0.60956   -0.34103   -5.83395
       H     0.97636   -3.20205   -3.25104
       O     1.28407   -3.39224   -4.12932
      H1     1.95273   -4.08962   -4.00048
       H     0.51104   -5.62863   -0.19326
       O    -0.26283   -5.84485    0.33610
      H1    -0.06529   -6.78647    0.53746
       H    -7.64762   -0.71270    4.36831
       O    -7.17127   -0.72852    5.22185
      H1    -6.88940    0.20275    5.27420
       H    -5.16608  -10.02819   -2.42270
       O    -5.07730  -10.08559   -3.41548
      H1    -6.04291  -10.12415   -3.58740
       H     0.10638    1.13987   -4.12906
       O    -0.51547    1.48917   -3.44517
      H1    -0.66831    2.40199   -3.71547
       H    -7.78357   -2.81057   -5.00578
       O    -8.19595   -3.53038   -5.52495
      H1    -8.39851   -3.19427   -6.45149
       H    -6.70333    0.43449    1.76895
       O    -7.59221    0.74387    1.58019
      H1    -8.10568    0.03516    2.00874
       H    -5.34545   -8.18560   -2.92710
       O    -4.80460   -7.50782   -2.51637
      H1    -3.93582   -7.96253   -2.46808
       H    -9.49994   -6.62661    3.60515
       O    -8.60055   -7.00760    3.61866
      H1    -8.75016   -7.91038    3.95224
       H    -3.53009    0.47092   -7.33904
       O    -3.87933   -0.45114   -7.33094
      H1    -4.81507   -0.22871   -7.43770
       H    -4.45124   -4.78352   -7.83740
       O    -3.85075   -5.58331   -7.83532
      H1    -3.10158   -5.23529   -7.29690
       H    -4.41211   -0.36733    1.59690
       O    -4.60023    0.37325    0.92316
      H1    -4.60914    1.18229    1.40909
       H    -9.37714   -1.23759   -1.26832
       O    -9.77245   -1.02737   -2.13438
      H1   -10.26327   -1.85896   -2.28995
       H    -0.45896   -5.21353    2.01995
       O    -0.80657   -5.06821    2.93444
      H1    -1.28866   -4.20733    2.93340
       H    -6.82521    0.68623   -5.63050
       O    -6.84496    1.07455   -4.75174
      H1    -7.38711    0.43907   -4.19082
       H    -6.90137    2.61256    2.08552
       O    -6.40347    3.28644    2.59970
      H1    -5.84106    3.64046    1.82681
       H    -4.93298   -4.19473   -3.13721
       O    -4.89334   -4.91477   -3.80570
      H1    -5.00372   -5.69964   -3.18644
       H    -1.25479   -6.80572    2.88802
       O    -1.31676   -7.74957    2.76409
      H1    -1.91105   -7.80590    2.05263
       H    -0.93712   -2.95335   -1.18157
       O    -0.00332   -2.85789   -1.26081
      H1     0.10107   -2.04716   -0.69799

