180
frame 8 | Written by MDAnalysis XYZWriter (release 2.4.3)
       H    13.66317    5.66943   15.62174
       O    13.46419    4.89151   16.22516
      H1    12.96535    4.26223   15.66789
       H     4.44517   12.33019   18.87569
       O     4.04441   12.77820   18.10894
      H1     4.66486   12.75704   17.36740
       H    10.98158    6.74846   17.84032
       O    11.74584    6.46306   18.36705
      H1    12.01163    5.70539   17.83068
       H     8.39355   18.78377   14.10170
       O     8.65309   18.08062   13.46545
      H1     8.60962   17.26687   14.02141
       H     5.42105   12.88482   14.85885
       O     5.93550   12.43518   15.57636
      H1     6.00067   11.53080   15.19348
       H     9.26123    8.55062   16.36766
       O     9.13155    7.65491   16.69531
      H1     8.69149    7.70796   17.51295
       H    12.27324   18.70621   15.88314
       O    12.74945   18.21856   15.21946
      H1    13.37760   17.67222   15.72721
       H     6.68443   18.59086   15.58920
       O     6.21948   19.26028   15.04159
      H1     5.33101   19.44110   15.43790
       H    11.32746   14.45731   18.87306
       O    10.37930   14.60129   19.06688
      H1    10.33297   14.76250   20.04243
       H    17.09208   18.69385   13.26489
       O    17.06586   18.00156   13.92608
      H1    17.92022   18.16201   14.33808
       H    12.49560   13.13735   17.40832
       O    12.91821   13.63786   18.09821
      H1    13.03344   12.93121   18.79305
       H    17.64904   11.04066   12.72844
       O    17.51580   11.08877   13.68696
      H1    18.11819   10.42319   14.12536
       H     7.63445   11.86543   18.50084
       O     7.64227   10.93741   18.85394
      H1     8.57375   10.68006   19.17054
       H    18.77361   17.28753   16.00983
       O    19.21475   18.01995   15.55910
      H1    19.96341   17.59572   15.15138
       H    10.93682    8.93176   11.18517
       O    11.33578    9.79039   11.42255
      H1    11.40414   10.27005   10.59772
       H    18.09322   20.13418   17.89227
       O    17.90483   19.86583   17.00914
      H1    18.32862   19.04787   16.73292
       H    12.38284   11.54444    8.92760
       O    11.40271   11.58620    9.11806
      H1    11.27267   12.46730    9.41560
       H    15.16850   18.16265   19.40094
       O    14.57355   17.37355   19.22097
      H1    13.68623   17.72108   18.89389
       H    15.02644   10.17022    9.79986
       O    15.41149    9.67954   10.55224
      H1    15.89747    8.96200   10.19057
       H     6.73572   17.66275   12.91389
       O     6.18070   16.89619   12.96159
      H1     6.11645   16.57088   12.02531
       H    10.04763    6.20521   14.44744
       O    10.57924    5.41718   14.67599
      H1    10.47748    4.89524   13.90535
       H     7.35946   15.98477   13.91148
       O     8.02532   15.80798   14.55377
      H1     8.29574   14.85621   14.48445
       H    14.08659    9.50455   11.81854
       O    13.60033    9.30486   12.68476
      H1    12.70932    9.24645   12.33319
       H    10.56695   17.62650   11.75748
       O    10.83485   16.96033   11.14021
      H1    11.84046   17.05269   11.02139
       H    18.41800   18.41221   19.62060
       O    18.60223   17.50345   19.39559
      H1    17.87522   17.38631   18.77891
       H    11.35074   14.17926   15.40096
       O    11.53089   13.27733   15.72055
      H1    12.03715   12.83379   15.04869
       H     8.53100    7.02625   15.31527
       O     8.10676    6.87110   14.45778
      H1     7.67452    5.98863   14.40384
       H    14.75524   14.48351   18.46028
       O    15.56616   15.09936   18.52883
      H1    15.20024   15.89706   18.95636
       H    15.24273    7.19717   18.29456
       O    15.90224    6.67255   17.85943
      H1    15.76314    6.57483   16.92120
       H    12.15954   19.22276   18.37252
       O    12.16598   18.22705   18.39454
      H1    11.23552   17.83846   18.39776
       H     9.54094   13.03486   15.27523
       O     8.72351   13.29476   14.88905
      H1     8.00819   12.91321   15.40779
       H    16.59285   17.11935   15.67621
       O    16.82574   16.87148   16.58284
      H1    16.07293   16.49169   17.01268
       H    19.15384   13.43460   14.49098
       O    18.27338   13.50686   14.78911
      H1    17.81917   12.92100   14.11311
       H    14.16613   11.66809   15.22147
       O    13.48162   11.41152   14.57159
      H1    13.80052   10.67137   14.02971
       H     8.82705   13.67815   18.08495
       O     7.91074   13.50488   17.81996
      H1     7.37692   14.26984   18.00207
       H    18.90534    8.55970   15.10420
       O    19.21486    9.44741   14.74691
      H1    19.61873    9.93122   15.48434
       H    18.27320   13.84508   16.67366
       O    18.17044   14.07110   17.64364
      H1    17.34645   14.56833   17.64734
       H     9.06618   12.48400   12.99143
       O     9.24230   12.00422   12.20891
      H1     9.92363   11.40996   12.35783
       H     8.83219   19.13935   19.90836
       O     7.91809   19.34803   19.66240
      H1     7.86656   19.55736   18.74412
       H    15.26032   15.54829   12.99937
       O    14.30026   15.39741   12.99439
      H1    14.14506   14.49436   12.67624
       H    17.28058   11.44199   19.12314
       O    16.54389   10.87541   18.86930
      H1    16.41834   10.91469   17.91208
       H     6.24585   16.72720   19.63080
       O     5.59477   16.80574   18.93052
      H1     4.94124   16.08045   19.04490
       H     7.52113   16.49982   16.28459
       O     7.38328   17.32849   16.75309
      H1     6.58893   17.12533   17.28133
       H     9.66204   16.41646   18.72726
       O     9.58470   17.24687   18.29780
      H1     8.83239   17.31864   17.72355
       H    10.71686   14.72307   11.00611
       O    10.76742   13.77192   10.86296
      H1    10.03463   13.24718   11.23800
       H    18.27950   10.96040   10.92501
       O    17.48118   11.39384   11.13741
      H1    16.79601   10.71598   10.98691
       H    13.80155   16.54039   11.73265
       O    13.52522   17.25290   11.15214
      H1    14.15373   17.28420   10.43699
       H    14.21401    8.08634   19.82763
       O    13.91413    8.16461   18.91813
      H1    13.05560    7.68206   18.90604
       H    13.90578   15.54492   15.04267
       O    14.01196   15.94169   15.91605
      H1    13.37943   15.64136   16.54203
       H     8.35336    6.66230   19.08521
       O     8.56777    7.54953   19.41206
      H1     9.34645    7.44039   19.97643
       H     5.49093    7.87971   18.10351
       O     5.63779    8.82181   17.93571
      H1     6.48124    9.04655   18.37136
       H    12.11045    6.26234   14.45137
       O    12.98453    6.63283   14.35194
      H1    13.01315    7.56003   14.22219
       H    16.45594    5.56660   14.64157
       O    16.41039    6.44676   15.07586
      H1    16.31432    7.15058   14.41261
       H    16.38735   11.98209   15.68046
       O    15.62897   12.06063   16.25858
      H1    15.61504   12.97756   16.58240
       H    12.26452   13.37181   11.63208
       O    13.11940   13.06589   12.00502
      H1    12.84753   12.55902   12.79235
       H    10.37799   16.36432   15.10268
       O    11.15878   15.74403   14.92746
      H1    11.84827   16.40426   14.72099
       H    17.44729   16.52696   12.80209
       O    17.34706   15.66412   12.31102
      H1    17.48722   14.97090   12.99447
       H    15.53672    8.53728   13.14093
       O    16.50374    8.48901   13.26588
      H1    16.69452    9.41715   13.31781
       H    17.43468    9.25797   19.01390
       O    17.73567    8.30923   18.91282
      H1    17.12909    7.90392   18.26359
       H     6.90290    8.34968   14.75415
       O     6.42907    9.10748   15.09329
      H1     5.97566    8.73765   15.88462

