180
frame 1 | Written by MDAnalysis XYZWriter (release 2.4.3)
       H     5.90031    3.39073   -4.60907
       O     6.20236    4.31518   -4.59624
      H1     5.64652    4.66802   -3.86373
       H    11.67957    4.79042  -17.06574
       O    10.96134    5.27770  -16.54729
      H1    10.22350    4.61296  -16.55331
       H    14.14440    4.31179   -8.78126
       O    14.78583    5.09545   -8.99637
      H1    15.59407    4.50613   -8.98997
       H     3.34167    2.95270  -10.14872
       O     3.73790    2.82691  -10.97767
      H1     4.12669    3.63035  -11.25236
       H    12.97630    2.99414   -6.33591
       O    13.05149    2.20974   -5.78725
      H1    12.83761    1.58972   -6.48716
       H    12.40069    6.52607   -5.62793
       O    11.92226    7.35047   -5.38041
      H1    12.46275    7.69508   -4.68330
       H    11.16513    8.53671  -13.01376
       O    10.42864    7.95532  -12.90367
      H1    10.86835    7.22259  -13.37333
       H    11.90977   -1.39514  -13.73122
       O    11.52299   -2.25948  -13.67376
      H1    11.88426   -2.65415  -14.48808
       H    14.45293   -1.77101  -11.11344
       O    14.69739   -0.90348  -10.81800
      H1    14.35815   -0.82773   -9.88851
       H     9.44450   -2.06276  -11.46596
       O     9.48344   -2.41277  -10.56579
      H1     8.70102   -3.08394  -10.61954
       H    17.49931    7.21074   -8.35343
       O    17.28777    6.53928   -9.03141
      H1    16.34869    6.43884   -9.01793
       H     6.37378    2.41898  -13.92956
       O     6.26945    1.46236  -14.01713
      H1     6.50373    1.14160  -13.14454
       H     8.05780    4.81228   -4.79773
       O     8.97873    4.95885   -4.50643
      H1     9.57512    4.77087   -5.27658
       H     7.55079    0.05332  -15.03598
       O     8.30695   -0.08849  -15.62256
      H1     9.03801    0.40884  -15.16295
       H    10.07801    5.10868   -7.46395
       O    10.66373    4.39444   -7.12129
      H1    10.03316    3.70324   -6.92349
       H    15.74847    3.36415   -4.57294
       O    15.57513    2.76380   -5.30396
      H1    14.61911    2.70262   -5.37308
       H    17.78151    2.04314  -11.52799
       O    16.89369    2.26162  -11.10861
      H1    17.11230    2.68002  -10.28187
       H     5.88213    7.56952   -6.36640
       O     6.16570    7.72587   -7.29914
      H1     6.12886    6.77926   -7.64129
       H    14.39558    8.16554  -14.43426
       O    13.90766    8.98818  -14.43173
      H1    14.46132    9.62915  -14.98403
       H    10.19796    0.98375  -10.94111
       O    10.67138    1.60922  -11.49841
      H1    10.90230    2.32599  -10.85433
       H    14.75848    4.88933  -13.96236
       O    14.38645    5.80184  -13.98967
      H1    13.41332    5.74081  -14.14269
       H     9.02680   -0.63300  -10.20026
       O     9.04042    0.32403  -10.03366
      H1     8.26402    0.51863  -10.56004
       H     8.13242    3.32042  -16.17369
       O     8.45394    4.22803  -16.20275
      H1     8.06673    4.58516  -17.01252
       H    16.61685    5.15921  -12.75716
       O    17.37846    5.68290  -12.42116
      H1    17.96699    5.49298  -13.18342
       H    14.80318   -0.55244   -7.90675
       O    14.02766   -0.02058   -8.24168
      H1    13.32972   -0.66967   -8.02909
       H    11.42600    5.86283  -14.89977
       O    11.67042    5.89187  -13.97842
      H1    11.35783    5.05448  -13.59871
       H    15.12307    4.45407   -5.77953
       O    14.39899    5.09810   -5.76428
      H1    14.60419    5.47094   -6.61684
       H    11.56858    8.04264   -7.04545
       O    11.37699    8.43573   -7.89827
      H1    10.72232    7.87512   -8.31753
       H    10.46122    3.72282   -1.76608
       O    10.80795    3.91529   -2.62900
      H1    10.07141    4.35664   -3.02175
       H     7.86103    6.09237  -11.28780
       O     8.87348    6.06421  -11.37260
      H1     9.07346    6.87739  -11.87000
       H     6.91314    6.31106  -15.15454
       O     6.47639    7.11682  -15.55950
      H1     7.27157    7.61060  -15.82866
       H     7.44197    4.03750  -14.52502
       O     7.09726    3.88640  -13.61826
      H1     7.91884    3.52042  -13.21728
       H    10.07154    2.36503   -5.43407
       O     9.23964    2.25489   -5.91333
      H1     9.44173    1.55015   -6.50948
       H    12.41945    1.36370  -11.70086
       O    13.29616    1.31282  -12.06632
      H1    13.73543    0.59955  -11.56971
       H     6.62782    4.64521   -8.84608
       O     6.72381    5.16933   -8.03634
      H1     6.09525    4.62643   -7.56487
       H    12.93443    6.16909  -11.97400
       O    12.76690    5.53633  -11.27243
      H1    13.62248    5.48212  -10.74435
       H     4.72393    2.28914   -7.27941
       O     4.78761    3.23395   -7.38755
      H1     4.50207    3.52648   -6.50961
       H     9.71282    9.18075  -14.58632
       O     9.68925   10.11616  -14.92215
      H1    10.48207   10.48143  -14.50009
       H     8.77010    7.00810   -8.23921
       O     9.37826    6.40776   -8.65456
      H1     9.01557    6.52296   -9.57190
       H     5.79445    8.19328  -12.02375
       O     6.67507    8.55972  -11.77836
      H1     6.32082    9.06318  -11.00010
       H    13.38917   -2.31918   -6.84426
       O    12.58941   -2.10408   -7.35231
      H1    12.64575   -2.77309   -8.08652
       H     9.60020    4.40794  -12.17633
       O     9.98176    3.86130  -12.90723
      H1    10.23213    2.97713  -12.52462
       H    10.84307    1.11256  -14.55405
       O    10.49189    1.67448  -15.26219
      H1    10.34140    2.51747  -14.78176
       H     7.19438    8.85072   -8.13465
       O     7.87629    9.21983   -8.78439
      H1     8.60021    9.33211   -8.10227
       H    12.96738    1.83184   -3.89214
       O    12.67731    1.21982   -3.19726
      H1    11.73845    1.39842   -3.20332
       H    13.25916    0.59422  -13.68839
       O    12.82480    0.03253  -14.32023
      H1    13.59196   -0.29656  -14.88480
       H     6.55933    1.82976  -10.99447
       O     6.78909    1.07673  -11.56429
      H1     6.14282    0.35816  -11.33434
       H     4.67698    6.00900  -12.26771
       O     5.12931    5.17123  -11.88481
      H1     5.56642    4.98924  -12.70560
       H    10.19193    4.82910   -9.72773
       O    10.75983    4.13133  -10.12298
      H1    11.44481    4.69899  -10.49930
       H    12.20609   11.38713  -13.07349
       O    11.72984   10.67014  -12.67704
      H1    11.07144   10.97194  -12.03517
       H    13.46140   10.60304   -9.08829
       O    13.78026    9.87416   -8.53625
      H1    12.97733    9.29898   -8.41965
       H     8.29009    1.94587   -2.81249
       O     8.20967    1.29520   -3.52377
      H1     8.42879    1.81269   -4.34731
       H    10.29421   10.19691   -7.03034
       O     9.37906   10.43170   -6.97137
      H1     9.28607   11.27824   -7.52997
       H    11.99571    3.64972   -8.66685
       O    12.82473    3.19588   -8.42307
      H1    12.88606    2.38587   -8.97957
       H     5.54843    2.96040  -10.01382
       O     6.40054    3.41038  -10.17723
      H1     6.27525    4.19640  -10.71519
       H     9.18251   -0.32033   -8.37302
       O     9.40577   -0.51231   -7.47005
      H1     8.57229   -0.90158   -7.15443
       H    14.02953    9.55014  -12.87481
       O    14.63312    9.76776  -12.10033
      H1    13.97662    9.99443  -11.42521
       H    17.64396    4.62893   -8.24826
       O    17.34607    3.70952   -8.60221
      H1    17.57503    3.23335   -7.79548
       H    15.26254    0.95967  -12.64895
       O    15.83692    0.37372  -13.22330
      H1    16.51784    0.17347  -12.53147
       H    16.78428    3.21550  -13.86626
       O    16.00663    3.52176  -13.45759
      H1    16.15379    3.32930  -12.52542

