180
frame 6 | Written by MDAnalysis XYZWriter (release 2.4.3)
       H     2.94417  -17.07108  -10.60417
       O     2.57038  -17.92665  -10.65251
      H1     2.46721  -18.11373  -11.59311
       H     0.68227  -18.32752  -16.59072
       O     1.45100  -18.79819  -16.82632
      H1     1.91234  -18.89681  -15.96592
       H     9.46335  -16.41236  -18.38989
       O    10.25836  -15.79073  -18.43862
      H1    11.06173  -16.36287  -18.59421
       H    11.62339  -19.18163  -16.44830
       O    11.33386  -19.06161  -15.59494
      H1    11.25085  -18.12336  -15.52366
       H     5.44330  -15.55102  -17.07976
       O     5.76814  -14.80160  -16.55589
      H1     6.70554  -14.69332  -16.60689
       H     6.38389  -13.74147  -12.74444
       O     5.44443  -13.66995  -12.54190
      H1     5.16403  -12.75052  -12.71125
       H     3.44704  -17.11851  -17.98797
       O     4.44391  -17.25665  -17.82816
      H1     4.45953  -17.99272  -17.22083
       H     5.14558  -11.62029  -14.62042
       O     5.18106  -11.69533  -15.54103
      H1     5.49137  -12.56068  -15.73301
       H     6.63882  -17.23624   -9.25304
       O     6.93354  -16.52188   -9.83920
      H1     6.19139  -16.44263  -10.49838
       H     9.46585  -14.15853  -18.90736
       O     9.30028  -13.22599  -18.98387
      H1     8.41607  -13.01956  -18.69446
       H    13.46213  -17.39485  -14.77209
       O    14.28847  -17.65868  -15.24708
      H1    14.01004  -18.45667  -15.65169
       H    -0.50882  -16.85403  -13.27851
       O    -1.15932  -17.47521  -12.89892
      H1    -0.93037  -17.36002  -11.96485
       H     1.52749  -15.40064  -14.94908
       O     2.11634  -15.24290  -15.68873
      H1     2.92479  -15.66676  -15.31309
       H     1.86251  -15.93606  -17.33323
       O     2.07054  -16.08400  -18.27990
      H1     2.58610  -15.31124  -18.54727
       H     2.64615  -19.03331  -13.39801
       O     2.39427  -18.09431  -13.39839
      H1     3.23099  -17.58672  -13.43070
       H    10.68471  -12.69308   -8.53888
       O     9.76341  -12.54924   -8.74900
      H1     9.41866  -13.40967   -8.94743
       H     6.60973  -14.39720   -7.60595
       O     7.33815  -15.01258   -7.54533
      H1     7.22854  -15.46763   -8.38674
       H    12.80667  -20.09658   -8.33293
       O    13.38415  -19.61034   -8.94285
      H1    12.87528  -18.75300   -9.01062
       H    13.57046  -14.02261  -11.33813
       O    13.05087  -14.19409  -10.54229
      H1    13.15123  -15.13633  -10.34705
       H     7.76833  -18.66311   -6.47518
       O     8.65560  -18.27306   -6.61590
      H1     8.72141  -18.43943   -7.57385
       H    12.43640  -12.14215  -19.69159
       O    13.31753  -12.01892  -19.39939
      H1    13.29420  -11.08428  -19.10077
       H    10.52516  -12.84444  -17.74246
       O    11.22560  -12.66526  -17.08265
      H1    12.10253  -12.78878  -17.55225
       H    13.82326  -19.60436  -10.73475
       O    14.15123  -19.43819  -11.61236
      H1    13.41918  -19.37714  -12.21055
       H     6.36812  -19.95779  -12.20189
       O     6.01292  -19.26707  -11.65167
      H1     5.06895  -19.47931  -11.61840
       H    13.37719  -16.79098   -8.73444
       O    12.49809  -17.13869   -8.94904
      H1    11.98297  -16.88640   -8.21228
       H    13.03014  -16.41183  -19.59335
       O    12.88490  -16.89625  -18.76078
      H1    13.24921  -16.32304  -18.07825
       H     1.20610  -13.49181  -16.19026
       O     1.11962  -12.54991  -16.28675
      H1     0.23085  -12.42917  -16.55010
       H     7.74139  -18.32667  -16.26410
       O     7.43098  -19.22291  -16.03503
      H1     7.63449  -19.80409  -16.78762
       H     9.75107  -15.35956  -10.81677
       O     9.06437  -14.75442  -10.59566
      H1     8.35777  -15.32148  -10.31762
       H     6.10263  -19.37215   -9.75565
       O     6.12936  -19.22071   -8.78226
      H1     5.23898  -18.87807   -8.44545
       H     0.98789  -15.75613  -12.45673
       O     0.58059  -15.46387  -13.31799
      H1     0.53139  -14.50986  -13.21324
       H     4.32617  -17.30084  -15.30239
       O     4.36334  -16.50941  -14.75565
      H1     5.07554  -15.84976  -15.07639
       H     3.67837  -13.08445  -18.42837
       O     4.24102  -13.83610  -18.63913
      H1     4.54949  -13.98748  -17.73158
       H    13.07300  -18.61082  -18.74967
       O    12.90111  -19.48325  -18.49444
      H1    13.10032  -20.05364  -19.24670
       H     5.02435  -17.09348  -12.27204
       O     4.85802  -16.34749  -11.64626
      H1     4.95037  -15.53749  -12.11926
       H     1.88416  -11.63548  -17.79259
       O     2.36678  -11.66578  -18.61143
      H1     2.37037  -10.75808  -18.95723
       H    16.15412  -16.84671  -18.08086
       O    16.30861  -17.80374  -17.82811
      H1    16.44827  -17.76307  -16.88590
       H     5.79226  -10.21663  -12.94416
       O     5.07356  -10.84694  -12.93244
      H1     4.27504  -10.32966  -12.66645
       H     0.77967  -17.70004  -10.16181
       O    -0.14179  -17.56776  -10.07006
      H1    -0.60159  -18.41203  -10.05874
       H     7.24151   -9.15036  -16.42687
       O     7.75651   -9.83193  -16.92659
      H1     8.29629   -9.29094  -17.57013
       H    10.62075  -12.46434  -10.23834
       O    11.27748  -12.38724  -10.94153
      H1    11.82041  -13.17670  -10.80949
       H    12.88708  -12.76593  -13.38428
       O    13.50157  -13.47945  -13.49429
      H1    14.06678  -13.20020  -14.22393
       H    10.98905  -18.99447  -18.83466
       O    10.12301  -18.83910  -19.12008
      H1    10.12688  -18.79287  -20.05394
       H    10.98717  -15.98552  -15.18309
       O    10.29955  -16.34314  -15.85211
      H1    10.48218  -15.95445  -16.70301
       H     6.68355  -11.31215  -18.01095
       O     6.59304  -12.02242  -18.61088
      H1     5.74379  -12.42908  -18.46695
       H    -1.35678  -18.69391  -16.20073
       O    -1.14762  -17.86625  -16.70935
      H1    -1.83284  -18.01127  -17.36495
       H     2.82959  -14.49242  -10.18314
       O     2.06538  -15.09630  -10.18894
      H1     1.24575  -14.64290  -10.33367
       H    11.68152  -16.29081  -13.41685
       O    12.28919  -16.05350  -14.12802
      H1    12.65797  -15.20039  -13.82643
       H     4.92706  -13.23161  -10.08722
       O     4.58152  -14.05624   -9.64119
      H1     5.04145  -14.69403  -10.22318
       H     8.13662  -14.81256  -13.50701
       O     8.14678  -13.86456  -13.15134
      H1     8.49366  -13.84784  -12.25467
       H     8.70362  -18.93774  -12.51509
       O     8.54021  -18.09244  -12.06594
      H1     7.94861  -18.37265  -11.38890
       H     1.17226  -12.62815  -14.39524
       O     0.97612  -12.79025  -13.45042
      H1     0.12392  -12.26274  -13.34475
       H    11.21387  -10.49996  -14.55419
       O    11.88766  -11.28276  -14.54510
      H1    11.84189  -11.63775  -15.40044
       H    15.06042  -16.26070  -12.79621
       O    14.93244  -16.54873  -11.86012
      H1    14.87412  -17.50751  -11.91177
       H    10.02819  -10.43279  -12.06287
       O     9.24774  -10.76698  -12.48546
      H1     9.63296  -11.58117  -12.90091
       H    14.61219  -14.59862  -16.33690
       O    14.15062  -15.32843  -16.79603
      H1    14.43180  -16.10950  -16.23259
       H     8.36519  -17.78850  -19.06658
       O     7.86468  -17.20684  -18.45314
      H1     7.23005  -16.77163  -19.06700
       H     3.16950  -18.56507   -9.00668
       O     3.49722  -18.78195   -8.11331
      H1     3.28400  -18.03819   -7.54194
       H     8.80911  -16.26592  -15.01988
       O     8.03782  -16.25687  -14.42511
      H1     8.12993  -16.98003  -13.79564
       H    11.35744  -17.05200  -10.34165
       O    10.75701  -16.74663  -11.06940
      H1     9.93594  -17.32620  -11.12869

