180
frame 7 | Written by MDAnalysis XYZWriter (release 2.4.3)
       H   -12.53605    7.41195   14.75090
       O   -11.80429    6.96993   15.18902
      H1   -11.84490    7.38008   16.06466
       H   -16.04243   19.24551   13.42642
       O   -16.84888   18.75269   13.22795
      H1   -16.75685   17.88656   13.61172
       H   -15.15243   14.31061    5.62401
       O   -14.30177   14.64393    6.03546
      H1   -13.79996   14.71189    5.21118
       H   -16.80028    6.79472    9.45381
       O   -16.83703    6.94312   10.42726
      H1   -17.07831    7.90253   10.50840
       H   -14.02218    7.01806   10.82909
       O   -14.52843    6.63974   11.59422
      H1   -15.37945    6.91612   11.19759
       H   -14.94758   17.28347   10.12310
       O   -15.02922   17.83883    9.36133
      H1   -14.37861   17.66960    8.71851
       H    -9.31272   15.11326   14.35808
       O    -9.65019   16.02797   14.38372
      H1   -10.22901   16.14474   13.57708
       H   -14.69732   14.50185   17.00252
       O   -13.95601   14.22760   16.43809
      H1   -13.52871   13.48425   16.87364
       H   -12.39098    9.56000   13.59377
       O   -12.03609   10.47706   13.63926
      H1   -11.33977   10.29073   14.29166
       H   -16.59269   15.56209   14.16791
       O   -17.14024   16.27357   14.53494
      H1   -16.77216   16.32928   15.42274
       H   -13.90373   16.71047   14.54097
       O   -13.76785   17.05325   13.63969
      H1   -13.72291   17.98937   13.87099
       H   -15.36505   10.13005    7.78198
       O   -16.34323    9.98722    7.65889
      H1   -16.58211   10.62715    8.36792
       H   -14.34338    8.30277   13.88840
       O   -13.52792    8.12345   13.49694
      H1   -13.78029    7.52405   12.72149
       H    -9.33890   11.40025    8.80375
       O    -8.82172   10.70379    9.34215
      H1    -9.40243    9.94656    9.31368
       H   -20.01454    9.83455    7.51513
       O   -19.36301   10.54965    7.79123
      H1   -18.69133   10.36287    7.15634
       H   -13.05921   15.03099   10.57432
       O   -12.10056   14.90491   10.36985
      H1   -12.00177   13.95188   10.44127
       H   -17.38753   14.56450    4.62835
       O   -16.74109   14.04843    5.19356
      H1   -17.25853   13.91480    5.96865
       H   -10.88358   13.12801    8.19291
       O   -10.02497   13.20256    8.59645
      H1    -9.48489   13.77345    8.04092
       H    -9.42589   12.64935   12.79195
       O    -9.74413   13.07224   13.57161
      H1    -9.90346   12.40204   14.26018
       H   -15.89520    9.79473   14.57104
       O   -15.70346    8.90976   14.88754
      H1   -16.57944    8.50104   14.77820
       H   -11.93106    9.32877    7.34596
       O   -11.33569    9.10643    8.07349
      H1   -10.82337    8.37897    7.64151
       H   -18.00572   17.68204    9.85592
       O   -17.73290   17.09876    9.08867
      H1   -16.76800   17.23240    9.18954
       H   -16.11105    7.58511    4.94746
       O   -15.86065    7.54179    5.89036
      H1   -16.16873    8.29521    6.29262
       H   -10.73378    6.76650    9.90897
       O   -11.55541    7.15579    9.77301
      H1   -11.38179    7.90436    9.19339
       H   -18.48027   16.98088    5.55265
       O   -19.15326   16.42674    5.98797
      H1   -19.97595   16.94847    5.94658
       H   -18.23764    9.72118    4.71196
       O   -18.97559    9.18859    4.31718
      H1   -18.65915    9.09581    3.39298
       H   -18.36333    9.78060   10.00992
       O   -17.88216    9.81191   10.85517
      H1   -17.12976   10.36443   10.63978
       H   -11.53856   16.19386   11.97107
       O   -11.14724   16.96396   12.41937
      H1   -11.91704   17.30977   12.90568
       H   -11.52496   16.67298    7.89353
       O   -10.74657   16.14001    8.11322
      H1   -11.17180   15.65305    8.80509
       H    -8.11095   11.35063   10.67387
       O    -7.57711   11.90649   11.31465
      H1    -7.53779   12.78882   10.84551
       H   -12.85246    6.27590    8.93141
       O   -13.72344    5.98103    8.67358
      H1   -13.52361    5.92178    7.71230
       H   -12.58622   15.46529   16.45022
       O   -11.93134   16.17257   16.32233
      H1   -11.43302   15.81982   15.57133
       H   -11.01648   12.20433   12.13103
       O   -11.37167   12.26231   11.24768
      H1   -11.31211   11.40973   10.81100
       H   -18.46505    7.33158   13.75680
       O   -17.92499    6.90371   14.36498
      H1   -18.11864    5.95995   14.24276
       H   -17.59038   18.65800    7.98120
       O   -17.34879   19.54003    7.65410
      H1   -18.01090   19.97449    8.15664
       H    -9.51216   12.13628    5.94306
       O    -9.92830   11.48431    5.39272
      H1   -10.16135   12.03593    4.61573
       H   -14.65592   15.09954   11.46323
       O   -14.72531   16.03318   11.27494
      H1   -14.50635   16.36345   12.19562
       H   -13.67635   11.02923    7.33430
       O   -13.90612   10.09699    7.09709
      H1   -14.01029   10.26587    6.11348
       H   -14.04161   17.77163    6.49427
       O   -13.62336   17.03024    6.99674
      H1   -14.19248   16.25368    6.76368
       H   -14.73198    5.44870   12.98093
       O   -15.16345    4.81160   13.53271
      H1   -14.72410    4.94709   14.40515
       H   -16.09908    6.30977    7.39793
       O   -16.22259    5.67273    8.12309
      H1   -15.35994    5.80094    8.56511
       H   -16.40333   11.54372   12.51374
       O   -16.39028   11.66970   13.46105
      H1   -17.33896   11.78615   13.55245
       H   -15.25086   10.05073    4.59779
       O   -14.32405   10.13157    4.29565
      H1   -14.20014    9.22550    3.99982
       H   -10.64062   15.54190    6.13063
       O   -10.33653   15.47358    5.23292
      H1   -11.10470   15.43706    4.66923
       H   -18.09612   18.28300   11.93167
       O   -18.67020   18.36587   11.16442
      H1   -18.80689   19.33830   11.07570
       H   -17.89720   15.37430   10.24397
       O   -17.92458   14.48324   10.62244
      H1   -18.66189   14.05303   10.12374
       H   -16.70903   12.96113   10.13181
       O   -16.23186   12.04011   10.14628
      H1   -15.32709   12.30783   10.36700
       H   -14.39720    6.81709    5.81630
       O   -13.52954    6.30736    5.73073
      H1   -14.01233    5.62132    5.13223
       H   -18.27332    5.73373   10.21026
       O   -19.22157    5.74092   10.47551
      H1   -19.21729    4.91630   11.04311
       H   -19.79481   12.16999   13.90516
       O   -18.98539   12.30073   14.35591
      H1   -18.76838   13.19488   14.00856
       H   -19.22493   13.34094    6.12870
       O   -18.91234   13.70070    6.94614
      H1   -19.23804   14.63588    6.86677
       H   -18.62555   14.91059   12.52489
       O   -18.96347   14.77535   13.38786
      H1   -18.52215   15.49122   13.83942
       H   -14.91229   14.17925   14.81515
       O   -15.50576   14.15175   14.04951
      H1   -15.72477   13.22232   13.92860
       H   -10.70042    8.67457   11.26256
       O   -11.08803    9.58997   11.27919
      H1   -11.47633    9.73816   12.22002
       H   -13.51947   13.28577    6.82870
       O   -12.78383   12.65475    7.13468
      H1   -12.51702   12.32072    6.29170
       H   -12.70371    9.26821   10.30435
       O   -13.56446    9.26592    9.79999
      H1   -13.27275    8.97816    8.94934
       H   -13.30906   12.80983   11.75789
       O   -14.16595   13.29398   11.66347
      H1   -14.39328   13.45704   12.58467
       H   -19.17906    7.39762   11.41234
       O   -19.17632    7.98953   12.19794
      H1   -18.63999    8.71394   11.79137
       H   -16.39964    9.35627   16.57186
       O   -16.97726    9.70044   17.27391
      H1   -16.56227    9.33698   18.07397
       H   -16.69153   11.58759    4.67612
       O   -16.86881   10.75620    5.12752
      H1   -16.54451   11.00538    6.07313

