180
frame 0 | Written by MDAnalysis XYZWriter (release 2.4.3)
       H    17.05871  -10.89082   -4.45374
       O    16.69418  -11.13986   -5.30405
      H1    16.06413  -10.42417   -5.46965
       H    18.99327   -9.13013   -8.82051
       O    18.18112   -9.44669   -8.41009
      H1    17.78514   -8.76245   -7.81428
       H     9.73192   -9.49096  -10.76136
       O     9.11241   -8.81282  -10.85258
      H1     9.68093   -8.05459  -10.96281
       H    10.83288   -6.09510   -9.56802
       O    11.71462   -6.42003   -9.31604
      H1    11.67403   -7.11121   -8.62826
       H     7.73431   -8.60206   -9.70137
       O     7.05881   -8.55430   -9.02330
      H1     6.37039   -7.96739   -9.40236
       H    13.59911   -4.74653   -4.27605
       O    14.02361   -4.07891   -3.70388
      H1    14.89777   -4.45728   -3.46419
       H    13.83715  -11.84451   -4.77463
       O    14.16928  -12.66728   -4.39369
      H1    13.42583  -13.23309   -4.28840
       H    16.32701   -2.71291  -12.87710
       O    16.26267   -3.42093  -12.23736
      H1    15.73080   -4.10710  -12.65310
       H    14.42175   -6.58303  -12.73779
       O    14.65644   -5.83719  -13.25980
      H1    13.91407   -5.32582  -13.46189
       H    11.84093   -3.80757  -14.48888
       O    12.58697   -4.39888  -14.23327
      H1    12.21281   -5.29520  -14.40163
       H     8.72953  -11.28885  -14.07678
       O     9.17966  -11.30573  -14.98991
      H1     8.90348  -10.48265  -15.41608
       H    12.15145  -12.85995   -8.98030
       O    11.36954  -13.04559   -8.44753
      H1    11.24680  -14.00128   -8.40814
       H    13.49716  -13.02051  -10.92404
       O    13.28041  -12.21569  -10.43901
      H1    14.13395  -11.71955  -10.40793
       H    11.25138   -2.63836  -11.48894
       O    11.37005   -3.58100  -11.77080
      H1    12.02213   -3.70408  -12.41117
       H    10.04795  -10.56172   -7.54372
       O    10.62511   -9.78135   -7.49018
      H1    11.42834   -9.92666   -8.00907
       H    14.05289  -14.37232  -12.56731
       O    13.87622  -14.55376  -11.61490
      H1    14.71714  -14.39422  -11.16986
       H    12.46481   -8.44326   -2.28945
       O    11.92811   -8.94428   -2.95427
      H1    11.95430   -9.86694   -2.74773
       H     7.87174  -11.38705   -8.04243
       O     8.71828  -11.65966   -7.57299
      H1     9.12670  -12.18711   -8.24249
       H    13.41272  -15.33118   -6.24156
       O    14.16347  -15.88573   -6.49196
      H1    14.18966  -15.86674   -7.44381
       H    12.27238  -10.03876   -6.03303
       O    12.98552  -10.15759   -5.37848
      H1    12.82779   -9.60710   -4.59702
       H    19.68105   -7.48063  -12.52320
       O    19.88889   -6.78213  -13.18490
      H1    19.39778   -6.00193  -12.88052
       H    13.56973   -9.46219   -9.22252
       O    13.09262   -9.01739   -8.48372
      H1    13.82465   -8.69921   -7.88402
       H    15.61428  -14.60631   -6.02132
       O    16.25572  -13.89807   -6.24171
      H1    16.12790  -13.22240   -5.57397
       H    10.40336   -4.11638   -8.77941
       O    10.30320   -3.64293   -7.89898
      H1     9.37349   -3.73183   -7.69801
       H    15.56395   -6.51611   -8.78340
       O    15.38361   -5.77558   -8.20674
      H1    15.19569   -5.05755   -8.80215
       H    13.77837   -8.89128   -5.98910
       O    14.45464   -8.23692   -6.30112
      H1    14.16316   -7.33172   -6.05476
       H    11.85471  -16.05594   -9.76566
       O    11.42028  -16.10707   -8.91964
      H1    10.45366  -16.22642   -9.13751
       H    17.10634   -5.03697   -7.54395
       O    18.07142   -4.81724   -7.64222
      H1    18.58490   -5.14107   -6.86195
       H     8.47118   -6.65930   -6.58142
       O     7.49132   -6.68194   -6.72388
      H1     7.33398   -7.24770   -7.47442
       H    18.62989  -12.56948   -9.13238
       O    18.88416  -12.91707   -9.97920
      H1    19.48749  -13.71574   -9.83331
       H    16.29887  -15.29322   -9.33603
       O    15.48876  -14.79247   -9.23175
      H1    15.67628  -14.12463   -8.53115
       H    11.90835  -13.99992   -4.67135
       O    11.80089  -14.08877   -5.66528
      H1    11.65455  -13.18978   -5.90883
       H    11.86905  -11.51648  -11.27844
       O    11.14342  -10.96731  -11.54873
      H1    11.48241  -10.34723  -12.19931
       H     5.81415  -11.02313   -7.67579
       O     6.26086  -11.00560   -8.49798
      H1     6.36526  -10.08877   -8.73032
       H    14.81138  -10.03885  -14.88958
       O    14.76048  -10.35942  -13.95997
      H1    14.39339  -11.22631  -14.12549
       H    18.27557  -13.58550   -5.87236
       O    19.12471  -14.02749   -5.80936
      H1    19.13527  -14.70186   -6.50156
       H    12.64926  -12.63083  -14.78351
       O    13.56846  -12.63968  -14.33514
      H1    14.16596  -12.93399  -15.03470
       H    14.56889   -3.27694   -5.63699
       O    14.68094   -2.77259   -6.42001
      H1    13.76424   -2.53464   -6.61119
       H    17.01189   -7.24925   -9.61022
       O    16.20007   -7.72506   -9.86602
      H1    16.48906   -8.62047  -10.03125
       H    12.77502   -8.53348  -12.36763
       O    12.39865   -8.96832  -13.15315
      H1    13.24732   -9.34747  -13.50183
       H    18.32385   -5.52006   -8.95069
       O    18.52454   -6.23552   -9.72829
      H1    18.56656   -5.61003  -10.49793
       H    20.33132   -9.52585  -11.60415
       O    19.49437   -9.24049  -12.03696
      H1    18.81915   -9.90480  -11.79035
       H    11.42095   -7.67175  -13.88980
       O    11.09100   -6.85169  -14.32770
      H1    10.29603   -6.56936  -13.84121
       H    18.48315  -10.91338   -7.87801
       O    18.59004  -11.79589   -7.36865
      H1    17.95982  -11.67474   -6.68212
       H    14.47422   -7.43519  -10.88812
       O    13.57105   -7.34827  -11.30328
      H1    12.91982   -7.01504  -10.58191
       H    13.99363   -8.78340  -16.50925
       O    14.78691   -8.68858  -16.09410
      H1    15.16337   -7.79446  -16.23387
       H    15.66168  -10.86845   -8.92781
       O    15.35102  -10.63435   -9.83934
      H1    16.11379  -10.69312  -10.41480
       H    12.10209  -15.36974  -11.95885
       O    11.18516  -15.56529  -11.68096
      H1    10.66383  -15.43692  -12.47369
       H     9.39436  -13.95931  -12.08673
       O     9.23102  -13.01973  -12.30052
      H1    10.05318  -12.55873  -12.10796
       H    16.46708   -7.68457   -6.46959
       O    17.40026   -7.69770   -6.36220
      H1    17.63735   -7.72773   -5.40660
       H    17.95876  -13.58326  -11.73985
       O    17.60719  -13.14112  -12.52285
      H1    17.99235  -13.56284  -13.27517
       H    10.31904   -7.77991   -6.23674
       O    10.25616   -6.83932   -6.32086
      H1    10.18809   -6.47575   -5.47015
       H    13.85316   -5.51686   -6.65042
       O    13.24999   -5.70028   -5.94899
      H1    12.38208   -5.85590   -6.34440
       H     8.16223   -9.50249  -12.25507
       O     7.61332  -10.17477  -12.80247
      H1     7.36485  -10.81572  -12.12328
       H    10.22449   -4.71274  -11.14474
       O     9.58678   -5.25117  -10.71921
      H1     8.88788   -4.63820  -10.37113
       H    12.64965  -11.99803   -2.68089
       O    11.79578  -11.59370   -2.26651
      H1    11.52302  -12.42884   -1.82837
       H    15.21414   -3.42748  -10.74813
       O    15.00713   -3.29946   -9.80370
      H1    14.41390   -2.53518   -9.86406
       H    17.09068  -11.48050  -12.17620
       O    16.93369  -10.52491  -11.96175
      H1    16.19263  -10.38202  -12.58815
       H     8.17158  -11.65048   -5.78990
       O     7.77417  -11.53541   -4.89435
      H1     7.53936  -12.44614   -4.60398
       H    14.42892  -16.17651  -10.11540
       O    13.98888  -16.98762  -10.44071
      H1    14.09951  -17.01438  -11.35052

