180
frame 11 | Written by MDAnalysis XYZWriter (release 2.4.3)
       H   -11.48977  -18.71193   -7.60799
       O   -11.67356  -18.44044   -8.52680
      H1   -11.54163  -19.34328   -8.95709
       H   -12.37607  -16.81677   -5.69914
       O   -11.52285  -17.23397   -5.80124
      H1   -10.91063  -16.78913   -5.18332
       H    -9.53263  -15.44517   -0.91233
       O    -8.76429  -15.92475   -1.18476
      H1    -8.11049  -15.20734   -1.22487
       H    -5.91167  -13.38492  -14.24939
       O    -6.80574  -13.22439  -13.78100
      H1    -6.71966  -14.02487  -13.22814
       H    -4.07398  -15.32785   -6.03092
       O    -4.50628  -15.64578   -5.15819
      H1    -4.04327  -15.13686   -4.49345
       H    -0.67487  -14.49271   -5.91468
       O    -0.47084  -15.40910   -6.11444
      H1    -0.20912  -15.80158   -5.27581
       H    -2.24111  -12.90308   -8.44238
       O    -2.76341  -13.41799   -7.79519
      H1    -3.22574  -12.73510   -7.28646
       H   -12.57041  -15.10997  -14.11119
       O   -12.26955  -15.69386  -14.85865
      H1   -12.82419  -16.45342  -14.64263
       H    -9.30472  -12.05827  -12.25518
       O    -8.73349  -11.45273  -12.81726
      H1    -8.32532  -12.12456  -13.33311
       H   -13.45206  -18.69351   -8.35025
       O   -14.33938  -19.15630   -8.14919
      H1   -14.34998  -19.98479   -8.67710
       H    -3.62745  -10.36857   -7.86071
       O    -4.20828  -10.78040   -7.19443
      H1    -3.65312  -10.61454   -6.40161
       H   -13.59463  -11.69002   -8.59985
       O   -13.63991  -12.55846   -9.04622
      H1   -12.88992  -12.97517   -8.59349
       H    -5.45983  -11.90106   -3.38908
       O    -5.66512  -12.83746   -3.37252
      H1    -5.90900  -13.12724   -4.26583
       H    -2.87425  -18.00023   -9.34926
       O    -3.80938  -17.78077   -9.43132
      H1    -4.13494  -18.63268   -9.13094
       H    -7.78596  -18.31673    0.44998
       O    -8.22996  -18.74192   -0.27429
      H1    -8.28863  -18.00373   -0.94650
       H   -10.87896  -17.11244   -9.55801
       O   -10.22496  -16.52663  -10.05123
      H1   -10.05114  -15.75383   -9.46314
       H    -4.34795  -16.97308   -1.41606
       O    -5.20510  -16.79531   -1.81172
      H1    -5.35411  -17.57451   -2.34477
       H    -6.34172  -17.55926  -14.95215
       O    -5.73941  -17.55875  -14.17680
      H1    -4.96341  -17.82994  -14.69732
       H    -9.29925  -10.31698   -5.67372
       O   -10.04414  -10.42382   -6.28948
      H1   -10.66062  -10.84723   -5.60413
       H   -14.72606  -17.23075  -14.31299
       O   -13.88809  -17.60322  -14.01089
      H1   -13.58947  -17.15557  -13.23667
       H    -6.86174  -19.00416   -9.18972
       O    -6.25892  -19.66913   -9.63628
      H1    -6.80324  -20.15056  -10.33895
       H    -0.46066  -16.02193   -7.86153
       O    -0.20990  -16.25276   -8.78813
      H1    -0.57520  -17.15232   -8.88921
       H    -5.08618  -16.44399   -9.50297
       O    -5.92093  -15.95551   -9.45184
      H1    -5.68537  -15.07751   -8.99466
       H    -8.04681  -11.31040   -3.13614
       O    -7.93221  -10.41166   -3.49758
      H1    -8.35160   -9.98121   -2.72947
       H    -9.96646  -14.45010   -4.88354
       O   -10.09329  -13.84089   -5.58942
      H1   -10.19780  -13.04868   -5.11293
       H    -3.79802  -15.48224  -12.73179
       O    -2.83450  -15.66150  -12.59724
      H1    -2.96499  -16.60577  -12.45736
       H    -1.88651  -14.18432  -12.59262
       O    -1.43289  -13.31737  -12.44041
      H1    -1.73290  -13.17663  -11.52826
       H    -7.02045  -18.97824   -3.62957
       O    -6.11019  -18.70312   -3.82366
      H1    -6.30212  -17.87713   -4.33181
       H    -9.07610  -16.14594   -3.15880
       O    -9.38121  -16.13202   -4.08566
      H1    -8.45228  -16.24833   -4.46566
       H    -7.29277  -14.39717  -15.13037
       O    -7.68622  -14.63180  -16.00756
      H1    -8.03653  -13.76926  -16.25183
       H    -8.24103  -11.07024   -8.08744
       O    -8.54230  -11.35584   -8.95633
      H1    -7.69475  -11.25628   -9.52190
       H    -8.02299  -13.22703   -8.60708
       O    -8.47054  -14.04020   -8.37469
      H1    -9.22497  -13.70386   -7.80596
       H    -6.76726  -11.85190  -11.72615
       O    -6.49419  -11.86127  -10.83309
      H1    -5.60433  -11.48352  -10.95138
       H   -11.59926  -11.77718   -3.38584
       O   -11.33530  -11.81209   -4.29618
      H1   -12.06445  -11.34534   -4.67797
       H    -6.36039  -15.48491  -11.96751
       O    -5.61297  -15.47006  -12.56327
      H1    -5.82639  -16.25023  -13.06819
       H    -6.23889  -10.28759   -6.94719
       O    -7.08364  -10.52133   -6.56504
      H1    -6.93681  -11.32740   -6.08182
       H    -8.39385  -15.70031  -11.86028
       O    -8.04836  -14.95292  -11.35248
      H1    -7.67260  -15.46464  -10.59171
       H   -13.03596  -13.22526  -12.58569
       O   -12.59893  -13.99707  -12.80939
      H1   -11.80851  -13.90519  -12.27545
       H    -8.54834  -17.17149   -8.41203
       O    -7.73257  -17.44667   -8.01530
      H1    -7.15570  -16.98419   -8.62369
       H    -6.47242  -13.19940   -0.58423
       O    -6.74435  -13.94386   -1.12938
      H1    -6.45770  -13.63762   -2.01796
       H    -7.22802  -13.83086   -6.53085
       O    -6.63853  -13.27455   -5.95733
      H1    -5.95426  -13.23128   -6.69133
       H   -11.96685  -19.35130  -15.06836
       O   -11.17519  -19.52908  -14.55212
      H1   -10.74750  -18.69907  -14.62808
       H   -12.73046  -13.60440   -4.93049
       O   -13.48217  -14.21022   -4.81619
      H1   -14.16612  -13.57754   -4.51301
       H    -9.65175   -9.31435  -10.86392
       O   -10.19267   -9.63267  -10.17099
      H1    -9.59434  -10.30231   -9.85243
       H    -9.86923  -14.42307  -10.86100
       O   -10.52267  -13.73152  -11.04733
      H1   -10.77851  -13.37639  -10.19201
       H    -3.29852  -20.03755   -4.73375
       O    -3.29893  -19.38832   -5.39058
      H1    -3.84249  -18.69629   -4.92521
       H   -13.91588  -16.73897  -11.34419
       O   -12.98978  -16.89807  -11.52429
      H1   -12.60822  -16.13610  -11.07473
       H   -14.15647  -15.80154   -5.40089
       O   -14.51503  -16.70546   -5.44522
      H1   -14.85559  -16.56351   -6.32414
       H    -0.36214  -14.60288   -9.21884
       O    -0.31363  -13.69953   -9.70810
      H1     0.34042  -13.27019   -9.11693
       H    -0.23317  -19.75245   -5.10843
       O    -0.78712  -18.96503   -5.25593
      H1    -1.73862  -19.30086   -5.34152
       H    -9.35567  -17.28168  -13.25931
       O    -8.93743  -17.30014  -12.37628
      H1    -9.59052  -17.37148  -11.73521
       H    -4.46053  -13.37480   -8.46325
       O    -5.39178  -13.44013   -8.64050
      H1    -5.43474  -12.91161   -9.47863
       H    -1.37343  -19.41988   -8.18762
       O    -1.33425  -18.71842   -8.81286
      H1    -1.26078  -19.27905   -9.66314
       H    -8.15323  -18.96997  -12.29630
       O    -7.61584  -19.80284  -12.39010
      H1    -6.76258  -19.58283  -12.78423
       H   -12.13465  -15.41003   -7.52953
       O   -11.74682  -14.54464   -7.65575
      H1   -11.06495  -14.47620   -6.92884
       H    -9.08595  -17.06630  -15.70366
       O    -9.82761  -17.10440  -14.96907
      H1   -10.49525  -16.45243  -15.28878
       H    -7.30995  -16.65379   -6.34490
       O    -7.09166  -16.48091   -5.41749
      H1    -6.25778  -15.97028   -5.53855
       H   -12.77043  -15.08891   -2.91871
       O   -12.11071  -15.53241   -2.35677
      H1   -11.79508  -14.79732   -1.78830
       H    -9.28706  -19.54439   -3.80867
       O    -8.69720  -18.99466   -3.28857
      H1    -9.11794  -18.15394   -3.53659
       H    -4.15827  -19.02847  -12.43422
       O    -3.55227  -18.46179  -11.91378
      H1    -3.95808  -18.24266  -11.07330

