180
frame 10 | Written by MDAnalysis XYZWriter (release 2.4.3)
       H    -0.22455    3.09275   13.67365
       O    -1.04224    3.23934   14.20713
      H1    -1.24242    4.15276   13.85245
       H    -5.83625    3.03685   11.77224
       O    -6.10546    3.78843   12.26900
      H1    -6.68655    3.27036   12.85912
       H    -4.65452    5.23751   12.86661
       O    -4.10942    6.02076   13.07904
      H1    -4.46193    6.69998   12.50873
       H     4.76486    1.08557   10.61967
       O     4.78846    0.11425   10.72999
      H1     4.18684    0.15429   11.51619
       H     3.33080    8.62985   14.49130
       O     2.37379    8.48846   14.53901
      H1     2.23466    7.51895   14.27391
       H    -3.16376    5.82340   19.07934
       O    -2.95749    5.62386   18.14944
      H1    -2.34544    4.89000   18.19629
       H    -5.85328    0.03314    8.62097
       O    -5.92936   -0.78230    8.07922
      H1    -6.76078   -0.64794    7.62444
       H     2.20061    0.97442    8.09193
       O     2.16958    0.71921    9.03336
      H1     2.44672    1.58434    9.41332
       H    -0.24311    3.20491   17.44320
       O    -0.56675    4.06233   17.01199
      H1    -0.66333    3.72289   16.05684
       H     2.31366   -2.90350   15.09534
       O     3.13900   -2.98368   15.51243
      H1     2.89435   -2.81056   16.43612
       H    -0.17246    3.43976    9.55800
       O     0.23944    4.14702   10.07416
      H1    -0.46098    4.79756   10.28703
       H    -1.05212    1.09188   15.49582
       O    -1.21304    0.49118   16.24823
      H1    -1.87254    0.96602   16.77245
       H     2.00243    3.71501    9.69522
       O     2.90160    3.26127    9.78466
      H1     3.15485    3.65693   10.68618
       H    -5.69797    5.80543   10.45192
       O    -5.10231    5.54371    9.73628
      H1    -4.97781    4.60183    9.92197
       H    -1.09967   -1.84066   10.07392
       O    -1.13194   -2.75151    9.81460
      H1    -1.96651   -2.86735    9.34089
       H    -6.62005   -1.13386    9.69276
       O    -6.98245   -1.51218   10.50485
      H1    -7.81347   -1.05067   10.64258
       H     0.31275   -1.81415    8.37157
       O     0.89522   -1.64585    7.67942
      H1     0.36906   -2.03481    6.90660
       H     1.38555    0.68109   12.17935
       O     1.66245   -0.12474   11.72382
      H1     1.66858    0.10485   10.77176
       H    -2.31445    2.15486   13.43414
       O    -2.59044    1.57998   12.67929
      H1    -3.48721    1.35487   13.01297
       H    -3.33253    2.62215    9.23963
       O    -3.70818    2.80615   10.14536
      H1    -2.94637    2.59482   10.71472
       H     2.99482    4.63646   12.77486
       O     3.62679    4.29077   12.10653
      H1     4.24459    3.74779   12.55049
       H    -9.17019    3.03835   15.45222
       O    -8.39509    3.39712   14.87440
      H1    -7.72949    2.79075   15.31852
       H     0.65002    0.06016   16.89143
       O     1.54819   -0.01670   17.29555
      H1     1.93717    0.83888   16.99820
       H    -7.26578    4.18158    7.66999
       O    -6.35833    3.86952    7.82818
      H1    -6.03788    4.66535    8.23218
       H    -0.84682    8.30678   15.68995
       O    -0.27591    9.09490   15.82101
      H1     0.13790    9.04503   14.90940
       H    -2.17721   -1.19200   16.19235
       O    -2.62235   -2.09766   16.21878
      H1    -1.91456   -2.63267   16.53314
       H    -4.55694   -1.43965   18.90538
       O    -4.34018   -0.93114   18.12694
      H1    -3.70651   -1.52644   17.61002
       H    -2.27436    8.59739   12.28272
       O    -1.44594    8.61312   12.79953
      H1    -0.84412    8.27092   12.17069
       H     0.10544   -2.88920   12.66230
       O    -0.84847   -3.07782   12.67559
      H1    -1.26664   -2.98879   11.81095
       H    -8.25698    1.71667   13.75833
       O    -8.14282    1.64371   12.77286
      H1    -8.42348    2.45713   12.39960
       H     0.74732    5.17634   18.18961
       O     1.64027    5.17304   18.56050
      H1     1.56320    5.76198   19.33615
       H    -6.32643   -2.60600   15.21937
       O    -6.56530   -3.29424   15.89840
      H1    -6.58603   -2.72865   16.65877
       H    -1.29856    1.23612    9.42397
       O    -1.29468    2.01075    8.90261
      H1    -1.17767    1.70521    8.01333
       H     0.47801    1.14240   18.96913
       O    -0.15860    1.82926   19.11518
      H1    -0.96133    1.31580   19.07220
       H     2.32052   -3.45394   12.49244
       O     1.79442   -2.90461   13.00854
      H1     1.92282   -2.03975   12.61736
       H    -2.47841   -2.76890   13.24295
       O    -3.46498   -2.74886   13.44999
      H1    -3.42957   -2.82717   14.42422
       H     3.91755    2.32373   17.93903
       O     3.07398    2.64893   17.65988
      H1     3.03550    3.37749   18.32069
       H    -6.71519    6.13751   16.02493
       O    -7.68667    5.86866   16.10719
      H1    -7.69868    5.10766   15.49465
       H    -3.00033    1.18507   19.90265
       O    -2.73178    1.10759   18.98191
      H1    -3.26792    0.32062   18.71559
       H    -5.18230   -0.17381   13.18445
       O    -4.99647    0.79279   13.05713
      H1    -5.84552    0.97367   12.64826
       H    -4.15034    7.15972   15.70569
       O    -5.03966    6.77205   15.38742
      H1    -4.74104    6.59084   14.45818
       H     4.84669    0.11470   14.58156
       O     3.97059   -0.24678   14.50486
      H1     4.09358   -1.17546   14.81213
       H    -3.52484    1.95006   17.51934
       O    -3.78266    2.11147   16.57598
      H1    -3.85427    3.04143   16.65191
       H     1.85672    2.66821   13.50323
       O     1.18555    2.54189   12.76172
      H1     1.41295    3.30784   12.24217
       H    -2.55232    6.65245   16.82049
       O    -2.34196    7.35352   16.19872
      H1    -2.72071    8.20285   16.53458
       H    -7.68747   -0.48567   17.91227
       O    -7.01197   -0.68055   18.59248
      H1    -6.27084   -0.91119   18.02514
       H   -10.18703   -0.00493   10.92128
       O    -9.23939   -0.02186   10.68380
      H1    -8.89038    0.54955   11.38296
       H    -6.28269    1.25416   18.74443
       O    -5.88159    2.11416   18.72383
      H1    -6.69291    2.65684   18.69464
       H    -1.38930    6.30372   14.90753
       O    -0.85101    6.05533   14.10578
      H1    -1.33332    6.69135   13.52774
       H    -6.70430    7.73194   11.16526
       O    -6.69121    6.92557   11.68017
      H1    -7.42692    6.42948   11.29418
       H    -1.52523    0.55204   11.48673
       O    -1.04478    0.00995   10.79558
      H1    -0.15670   -0.19538   11.12830
       H    -3.12901    5.69348    9.70658
       O    -2.18429    5.86664    9.80339
      H1    -2.23299    6.18046   10.69688
       H     0.99027    5.66441   14.03477
       O     1.94322    5.75072   13.90375
      H1     2.29959    5.40689   14.76047
       H    -5.22924   -2.16665   13.10029
       O    -5.95475   -1.49908   13.12427
      H1    -6.14711   -1.55681   12.15779
       H    -6.21487    0.94892   14.99323
       O    -6.34751    1.36057   15.81839
      H1    -5.42382    1.58101   15.97543
       H    -4.22353   -3.49495    9.56809
       O    -3.96782   -3.07923    8.70173
      H1    -4.42438   -2.22928    8.69223
       H     3.07835    1.64710   14.73621
       O     2.99062    2.59770   14.81283
      H1     2.97618    2.63725   15.77578
       H    -5.04683    1.75732   10.35669
       O    -5.88436    1.40058   10.06243
      H1    -5.98449    2.04495    9.30774
       H     1.19493    6.90010   11.61686
       O     0.33582    7.22670   11.32821
      H1     0.55711    7.20659   10.34679
       H    -3.51419   -5.18420   14.58451
       O    -2.66852   -5.44749   14.07456
      H1    -2.65379   -4.64815   13.54321

