180
frame 2 | Written by MDAnalysis XYZWriter (release 2.4.3)
       H    14.93371  -18.91714   -2.34220
       O    14.51587  -19.01276   -3.16084
      H1    14.54983  -19.98552   -3.29432
       H    13.50904  -18.56851    2.26258
       O    14.08917  -18.12147    1.61707
      H1    14.05155  -17.24436    2.01710
       H     7.87317  -15.94323    4.92365
       O     8.24281  -15.34368    5.63384
      H1     9.09190  -15.02881    5.27373
       H    11.48255  -12.31384   -3.82256
       O    10.67109  -12.72383   -4.14293
      H1    10.57442  -12.12647   -4.95272
       H    16.38412  -16.14068   -1.78646
       O    16.92139  -15.60160   -2.37726
      H1    17.77931  -15.89448   -1.96976
       H    11.36607  -14.54991   -3.00508
       O    11.05447  -15.26174   -2.42358
      H1    11.42032  -15.98351   -2.93432
       H     7.63134  -13.22274    3.44683
       O     8.44678  -12.65918    3.44426
      H1     8.07854  -11.77534    3.07093
       H     9.74708  -16.80847    7.64095
       O     8.80020  -17.07618    7.65574
      H1     8.35604  -16.40600    7.01650
       H    18.07210  -13.67527    6.71483
       O    17.35091  -13.58218    7.33725
      H1    16.62328  -14.05324    6.90756
       H    11.56978  -13.34763    1.81681
       O    12.52272  -13.04954    1.93224
      H1    12.34016  -12.33785    2.60093
       H    19.05927  -12.25637    0.16489
       O    19.27169  -12.86046   -0.57169
      H1    18.80681  -12.32354   -1.25188
       H    11.33098  -18.19292   -3.79315
       O    11.97374  -17.84655   -3.18268
      H1    12.70921  -18.46138   -3.25407
       H    11.92065  -11.64173    0.81077
       O    12.23255  -10.82513    0.36880
      H1    11.47850  -10.59565   -0.13458
       H    14.45267  -18.45232    5.65237
       O    14.03086  -19.38283    5.45408
      H1    13.71469  -19.56548    6.36709
       H     9.99667  -16.71094    0.07861
       O     9.43258  -16.48631    0.84177
      H1     9.60278  -15.52207    0.97079
       H    16.18856   -9.26091    1.80133
       O    16.23136   -8.38859    1.29485
      H1    16.74312   -8.56526    0.45611
       H    16.36269  -15.58171    0.32245
       O    16.57845  -15.17568    1.18938
      H1    16.30273  -15.87150    1.81349
       H     7.60382  -15.48392   -3.01449
       O     7.46377  -14.83964   -3.72248
      H1     7.01315  -15.44925   -4.33839
       H    12.24305  -12.37750    9.07394
       O    12.84546  -13.10735    8.90438
      H1    13.64548  -12.64180    8.58390
       H     8.85233  -18.08854    1.99419
       O     8.11047  -18.72967    2.00084
      H1     7.69174  -18.48851    1.14867
       H    16.07665  -13.65929   -2.62516
       O    15.59555  -12.82603   -2.75790
      H1    16.25886  -12.33483   -3.26824
       H    13.47248  -14.66649    2.66880
       O    13.59225  -15.59619    2.87583
      H1    12.71194  -15.87803    2.63502
       H    14.48119   -8.39806    0.92562
       O    13.52938   -8.27059    0.82065
      H1    13.17264   -9.21661    0.93629
       H    13.62390  -11.96790   -2.67796
       O    12.69790  -11.57780   -2.68497
      H1    12.68140  -11.37378   -1.76347
       H     8.70489  -18.64966   -3.34853
       O     8.77630  -18.93412   -2.41516
      H1     9.05291  -19.84126   -2.55517
       H    11.92188  -11.04058    4.15527
       O    12.08641  -10.50767    3.34654
      H1    11.75942   -9.65023    3.66967
       H    17.95875  -18.40606   -0.07239
       O    17.53505  -19.01229    0.58888
      H1    17.67506  -18.53581    1.42099
       H     7.93668  -13.05170    7.15184
       O     8.23725  -12.40181    6.43785
      H1     8.06186  -12.85534    5.64038
       H    18.32637  -16.84897    8.20466
       O    17.60681  -17.47498    8.23806
      H1    16.80350  -16.95236    8.31974
       H    14.24159  -16.30946    4.95807
       O    15.10230  -16.67632    5.26477
      H1    15.42819  -17.02043    4.37412
       H    17.45997  -18.93890    3.76691
       O    17.58139  -18.15935    3.19345
      H1    18.55443  -18.26397    3.11302
       H    16.51816  -19.60513    5.84716
       O    17.21881  -18.93923    6.00948
      H1    16.96763  -18.44000    6.77756
       H    14.33418  -15.65194    7.82839
       O    14.68784  -16.35781    8.43827
      H1    14.23210  -16.15038    9.27377
       H    17.19689  -18.22910   -5.30428
       O    17.69691  -18.95689   -5.80832
      H1    16.96218  -19.54477   -5.99237
       H    14.72619  -17.48963   -0.48358
       O    14.81567  -16.82977   -1.18653
      H1    14.31835  -16.08215   -0.75358
       H    15.78176  -12.02417   -1.24982
       O    16.00149  -11.33533   -0.58432
      H1    16.20382  -11.81689    0.18042
       H     6.22868  -14.68946    4.45003
       O     6.45269  -14.30061    3.56120
      H1     5.86635  -14.81322    3.01064
       H    12.00705  -16.27454    6.98362
       O    11.51528  -17.03790    7.30789
      H1    11.88233  -17.30690    8.18991
       H    12.80079  -18.76103    9.81809
       O    11.98109  -18.26068    9.94067
      H1    12.11197  -17.76664   10.71914
       H     9.38993  -13.91803   -1.91064
       O     8.89765  -13.35626   -1.35215
      H1     7.97370  -13.46888   -1.67705
       H    10.64765  -15.37685    3.93057
       O    10.51413  -14.53484    4.47845
      H1     9.82425  -14.05071    3.96568
       H     5.94601  -17.07838    3.60948
       O     6.71359  -17.36123    4.08994
      H1     7.16015  -17.88816    3.43739
       H    10.48162  -17.33536   -6.01782
       O    10.17336  -17.92379   -5.33400
      H1     9.65404  -18.65573   -5.69928
       H    14.41298  -15.49197   -4.96482
       O    14.22805  -14.64167   -5.45068
      H1    14.23655  -14.05045   -4.66958
       H    10.72043  -16.94202    2.23192
       O    11.18338  -16.54798    2.96006
      H1    11.59571  -17.33614    3.34886
       H     9.13017  -10.00340   -1.35818
       O     9.91707  -10.41055   -1.71191
      H1     9.71870  -11.33688   -1.60875
       H    12.91315  -13.96198    7.20361
       O    13.07583  -14.45173    6.37552
      H1    12.24434  -14.16405    5.94503
       H     9.34485  -13.23190    2.01992
       O     9.90716  -13.68495    1.32428
      H1     9.39701  -13.49376    0.50022
       H    13.27513  -13.98031    0.09857
       O    13.32198  -14.88105   -0.23814
      H1    12.60369  -14.77050   -0.91208
       H    13.83712  -10.53222    2.96468
       O    14.84150  -10.51102    2.89380
      H1    15.13581  -11.33236    2.46125
       H    17.86651  -11.47398    6.41226
       O    17.78515  -11.36255    5.42906
      H1    17.35456  -12.19826    5.28457
       H    19.27929  -16.52904   -0.54113
       O    18.90994  -17.19758   -1.13958
      H1    19.68559  -17.49388   -1.58865
       H    16.41678  -16.39660   -3.86708
       O    15.87505  -16.84190   -4.49435
      H1    15.42572  -17.49883   -3.99351
       H    15.64342   -9.87890    4.53529
       O    15.90670   -9.44823    5.34992
      H1    16.62509  -10.07411    5.54788
       H    16.80332  -13.06395    2.30644
       O    16.95510  -12.34761    1.65620
      H1    17.74588  -11.82360    2.00714
       H    18.24015  -16.76037    5.10378
       O    18.19706  -15.79888    5.36472
      H1    18.34922  -15.83551    6.35658
       H    17.09783  -14.24664    4.58978
       O    16.29726  -13.79007    4.42053
      H1    15.58158  -14.36369    4.69006
       H     7.35683  -18.52026   -1.14872
       O     6.79606  -18.24862   -0.40237
      H1     6.24513  -19.05146   -0.23283
       H     9.12577  -18.77836    4.95555
       O     9.14081  -19.05065    5.91405
      H1     9.26372  -18.15327    6.33776
       H    10.07862  -18.66299   -1.24621
       O    10.90472  -18.43923   -0.76461
      H1    11.41940  -18.03750   -1.49840

