180
frame 11 | Written by MDAnalysis XYZWriter (release 2.4.3)
       H     7.74863   -2.69514    5.16290
       O     7.21496   -3.26410    5.74466
      H1     6.59996   -2.58383    6.08317
       H     0.47210   -0.55229    6.60023
       O     0.10226    0.28226    6.26792
      H1    -0.00366    0.18643    5.30836
       H    -2.07856   -4.34071    0.93711
       O    -2.99654   -4.10064    0.85574
      H1    -3.39948   -4.12212    1.73150
       H    -2.45614    3.32626    6.85824
       O    -3.36174    3.17756    6.40948
      H1    -3.17276    2.41188    5.81639
       H    -0.41158   -4.49459    7.20947
       O     0.40813   -5.04827    7.28973
      H1     1.02363   -4.47644    7.74323
       H     0.28631    0.05005   -0.70768
       O    -0.07175   -0.47753   -0.02118
      H1    -1.03737   -0.55132   -0.25337
       H    -2.33729   -5.88849    5.64727
       O    -2.58678   -4.92806    5.56298
      H1    -3.52615   -4.93737    5.90067
       H    -6.56123   -0.33368    8.53256
       O    -5.72426   -0.62701    8.15151
      H1    -5.94844   -1.23739    7.45778
       H     3.08691    0.79603    8.49071
       O     2.93659    0.93534    9.46457
      H1     2.87529    1.91845    9.50543
       H     1.28660   -8.94108    7.95814
       O     1.84531   -8.18820    7.70654
      H1     1.36786   -7.50921    8.18546
       H    -2.86408   -0.80054   -1.45415
       O    -2.68959   -1.02454   -0.49486
      H1    -3.34375   -0.49249   -0.00792
       H    -1.24808   -1.47707    9.71778
       O    -1.49978   -2.25604    9.19338
      H1    -2.43603   -2.42975    9.36547
       H     0.38275   -2.09871    8.02287
       O     1.31325   -1.77796    7.75133
      H1     1.41471   -2.26120    6.96246
       H     1.57535    0.30835   11.88127
       O     1.58671   -0.62969   11.64112
      H1     2.04120   -0.74288   10.77157
       H    -0.62011   -7.74123    5.62653
       O    -1.48827   -7.56669    5.99716
      H1    -1.26182   -7.55031    6.91860
       H     2.06964    1.42399    6.57045
       O     2.91155    0.99219    6.72994
      H1     2.82969    0.41481    5.96911
       H     1.43147   -8.25995    5.95592
       O     1.05770   -8.31277    5.03269
      H1     1.78584   -7.94885    4.47331
       H    -0.17526   -5.95258    8.74473
       O    -0.48140   -6.85369    9.00610
      H1    -1.18844   -6.54507    9.62021
       H     3.96538   -0.84613    4.66336
       O     3.21374   -1.22927    5.13249
      H1     3.68858   -1.38367    5.98808
       H     5.80745   -3.60907    4.45724
       O     5.06693   -4.19005    4.12721
      H1     5.52511   -5.03311    3.85241
       H    -4.72660   -1.15587    3.79822
       O    -4.62592   -1.50917    2.90180
      H1    -5.48965   -1.52045    2.55310
       H     2.76340   -4.26384    2.35828
       O     3.37312   -3.81754    1.77764
      H1     4.04111   -3.52218    2.43317
       H    -4.08150   -3.15374    3.27700
       O    -4.04419   -4.12481    3.40711
      H1    -3.28148   -4.30082    4.01359
       H    -2.98127   -7.73627   -0.25009
       O    -2.96506   -7.39758    0.66153
      H1    -2.46047   -6.55362    0.58880
       H     0.08824   -3.93787   11.89788
       O    -0.82141   -3.59790   11.98315
      H1    -1.11231   -3.86063   11.06939
       H     5.07899   -5.59800   -0.39915
       O     4.26125   -5.80713    0.10484
      H1     4.01222   -4.92065    0.43260
       H    -1.15132    1.21592    3.78467
       O    -0.45877    0.51149    3.58743
      H1    -0.99261   -0.31335    3.50717
       H    -0.93287    1.49153    9.27777
       O    -1.13370    2.22680    8.70322
      H1    -0.80391    1.85717    7.86917
       H     3.01100    3.18825    4.11072
       O     2.28591    3.44544    3.56076
      H1     2.31519    2.67076    3.03983
       H    -3.80326   -1.16579    7.28392
       O    -3.10109   -1.14851    6.58688
      H1    -2.38533   -1.67009    7.00021
       H     2.82337   -4.00269    9.15996
       O     2.62328   -4.91567    8.80343
      H1     3.41028   -5.05052    8.17614
       H     1.28285    1.54498    1.26670
       O     1.78104    1.29589    2.04655
      H1     1.15781    0.81253    2.65093
       H    -5.65520   -5.05348    3.09746
       O    -6.52741   -5.07840    2.70567
      H1    -6.95933   -5.73162    3.29572
       H     0.48274    3.36805    4.16289
       O    -0.35138    3.63190    4.67958
      H1     0.08652    4.23537    5.28012
       H    -0.32161   -2.31481    3.07198
       O    -1.24288   -2.18578    2.83149
      H1    -1.17142   -1.65584    1.99349
       H     4.19085   -2.16632    9.25182
       O     3.29669   -2.41801    9.54420
      H1     2.72164   -2.09595    8.83758
       H    -4.31121    1.16740    4.66631
       O    -3.35210    1.14773    4.44716
      H1    -3.14399    0.25356    4.81347
       H     2.00374   -6.36151   11.62179
       O     1.35517   -5.69758   11.30082
      H1     1.84407   -5.51158   10.49377
       H    -3.97182   -3.11572   -0.47485
       O    -4.82497   -3.20235   -0.90789
      H1    -5.14296   -4.10231   -0.73026
       H     5.88077   -0.44033    7.10997
       O     5.38791   -1.26389    6.87190
      H1     5.75370   -1.83745    7.48209
       H     1.52458   -3.40973    4.47590
       O     1.00805   -2.62643    4.40238
      H1     1.70019   -1.94903    4.61516
       H     5.66435   -5.12207    6.87626
       O     4.77500   -5.11816    6.59436
      H1     4.88208   -4.59529    5.78967
       H    -4.77620   -4.17740    7.93906
       O    -5.00585   -4.79437    7.22449
      H1    -5.80560   -4.27390    6.96086
       H     0.51104   -5.62863   -0.19326
       O    -0.26283   -5.84485    0.33610
      H1    -0.06529   -6.78647    0.53746
       H     4.72900   -7.88620    4.93306
       O     3.85982   -7.44734    4.76346
      H1     3.88982   -6.74256    5.42367
       H    -1.51410    0.47333   11.67906
       O    -0.94213    0.43565   10.87441
      H1    -0.28403   -0.10572   11.30283
       H    -7.64762   -0.71270    4.36831
       O    -7.17127   -0.72852    5.22185
      H1    -6.88940    0.20275    5.27420
       H     4.00299   -0.86203    1.45767
       O     4.22223    0.08943    1.53305
      H1     3.34790    0.43212    1.71849
       H    -1.57170   -3.19231    5.78005
       O    -0.86520   -2.70644    6.23687
      H1    -0.27789   -2.39798    5.53142
       H     1.92837   -5.87497    4.85634
       O     1.84500   -5.28584    4.08972
      H1     0.89336   -5.07858    4.00035
       H    -4.37260   -3.97750    9.87737
       O    -4.26203   -3.11510    9.39305
      H1    -5.18777   -2.83353    9.18722
       H     4.41659    2.10903    5.72460
       O     4.69195    2.19733    4.80819
      H1     5.60818    2.45306    4.68301
       H    -4.41211   -0.36733    1.59690
       O    -4.60023    0.37325    0.92316
      H1    -4.60914    1.18229    1.40909
       H    -3.02449   -5.75703   11.32189
       O    -3.86609   -5.60302   10.82149
      H1    -4.47905   -5.11320   11.43939
       H    -0.45896   -5.21353    2.01995
       O    -0.80657   -5.06821    2.93444
      H1    -1.28866   -4.20733    2.93340
       H    -4.72631    0.96744    9.86443
       O    -5.50694    1.34359   10.32231
      H1    -5.74734    2.02215    9.63570
       H    -5.80705    2.08919    6.26851
       O    -6.05507    1.80225    5.32820
      H1    -5.96773    2.61250    4.81545
       H     5.69581    0.40796    4.67299
       O     5.66073   -0.30212    3.99591
      H1     5.28365    0.15096    3.27263
       H    -1.25479   -6.80572    2.88802
       O    -1.31676   -7.74957    2.76409
      H1    -1.91105   -7.80590    2.05263
       H    -0.93712   -2.95335   -1.18157
       O    -0.00332   -2.85789   -1.26081
      H1     0.10107   -2.04716   -0.69799

