180
frame 0 | Written by MDAnalysis XYZWriter (release 2.4.3)
       H     4.97867    7.54394  -14.16748
       O     4.71257    7.45387  -13.25545
      H1     3.94329    8.05423  -13.27369
       H     7.40353   10.38724   -9.80444
       O     7.07043   11.17761  -10.19990
      H1     6.97289   11.73748   -9.39929
       H     1.27544    4.58986   -8.90703
       O     1.50723    5.45734   -8.60411
      H1     1.02708    6.12569   -9.20613
       H     3.83037   10.66813  -12.05102
       O     4.05058   11.01969  -12.92690
      H1     4.99683   11.09888  -12.94223
       H    -4.35592    9.79199   -6.59716
       O    -4.34068    8.92446   -6.25282
      H1    -4.42106    8.34669   -7.05014
       H     6.86218    9.13277  -12.76869
       O     6.75129    9.96065  -13.29260
      H1     7.64749    9.93954  -13.59991
       H    -4.15490   12.62772   -6.80000
       O    -3.99169   11.68050   -7.13292
      H1    -3.00826   11.77556   -7.17618
       H     6.37811    8.72617   -4.05030
       O     6.00343    8.08399   -4.65999
      H1     5.08149    8.28204   -4.52242
       H     1.83367    2.11723   -8.88137
       O     1.15500    2.80149   -8.99998
      H1     0.74068    2.56452   -9.82303
       H    -2.36430    8.79737  -11.99154
       O    -2.14718    9.77210  -12.11729
      H1    -2.41770   10.06581  -11.26724
       H     0.46190    7.81551   -8.12864
       O    -0.13107    7.88504   -7.31740
      H1     0.00012    8.84323   -7.06262
       H     3.17923    2.23102  -10.74309
       O     3.89635    2.17434  -11.33388
      H1     4.02685    3.04616  -11.72917
       H     0.74710    3.50734  -13.33669
       O     1.31801    3.43560  -12.50564
      H1     1.03654    2.59567  -12.20013
       H     2.24553    8.67522   -8.85180
       O     1.41468    8.53911   -9.39981
      H1     1.81797    8.08428  -10.15118
       H    -1.24846    4.34116  -10.83622
       O    -1.62192    3.45600  -11.10058
      H1    -2.07064    3.19673  -10.25216
       H    -5.27666    9.00225  -10.06075
       O    -5.37335    8.08535  -10.24218
      H1    -5.60009    7.68085   -9.34366
       H     5.90882    7.61288   -6.60474
       O     5.84025    7.48411   -7.55884
      H1     5.96073    6.49181   -7.59936
       H     1.51024   13.41891  -14.69269
       O     1.53021   12.73878  -14.05768
      H1     1.70744   12.00308  -14.63631
       H     1.10823   10.92638  -11.60261
       O     1.32723   11.19681  -10.66827
      H1     1.45342   10.36008  -10.16572
       H     3.09091    8.00035  -16.78571
       O     2.59386    7.26203  -16.37385
      H1     2.41113    7.68351  -15.52218
       H    -0.49037   11.88592   -8.52437
       O    -1.17302   12.06561   -7.82031
      H1    -0.75672   12.90035   -7.43084
       H     4.66604   10.47213   -6.20769
       O     5.50966   10.85221   -6.09199
      H1     5.96518   10.20043   -5.58517
       H    -1.97922    6.51435  -16.26077
       O    -1.67737    7.14568  -15.53171
      H1    -2.04032    8.01450  -15.74946
       H     1.80777    9.43190  -14.14424
       O     2.67665    8.96911  -14.25121
      H1     3.30323    9.63711  -13.83187
       H     3.86743   11.12283   -9.95290
       O     4.21727   10.30218  -10.28669
      H1     5.16449   10.42315  -10.20923
       H    -3.15031    7.15931  -12.20762
       O    -3.09555    7.41860  -11.25297
      H1    -4.04350    7.73216  -11.07139
       H     6.37508    4.32853   -8.54015
       O     6.76012    4.91122   -7.83233
      H1     6.63395    4.33190   -7.05896
       H     4.04044    1.79812   -7.39228
       O     4.37313    2.63808   -7.69531
      H1     4.25686    3.19465   -6.88962
       H    -3.65570    8.37739   -4.77645
       O    -3.67551    8.12192   -3.81959
      H1    -3.22897    7.24945   -3.94181
       H    -0.10883   14.18284  -12.02273
       O    -0.09160   14.60198  -12.92286
      H1    -0.00564   13.87100  -13.51196
       H     4.12590    8.62298   -7.65711
       O     3.52920    9.30060   -7.89140
      H1     4.01468    9.74533   -8.62190
       H     5.78792    8.00631  -11.72076
       O     6.68145    7.99283  -11.34424
      H1     6.48818    8.50708  -10.53367
       H     0.31325   11.39264  -13.30583
       O     0.33281   10.43869  -13.13012
      H1    -0.51521   10.31558  -12.66687
       H     0.31120   12.78988  -10.41986
       O    -0.10696   13.64720  -10.41208
      H1    -1.02471   13.36123  -10.16796
       H    -2.09146    9.06176   -3.63367
       O    -1.61627    9.87539   -3.70776
      H1    -1.32313   10.06849   -2.79792
       H    -3.75852   11.18300   -8.97885
       O    -3.54378   10.82735   -9.88756
      H1    -3.34285   11.63913  -10.33386
       H    -5.45086    5.55573  -10.53155
       O    -4.65201    5.02656  -10.26069
      H1    -3.91583    5.66703  -10.39372
       H     0.57024    4.42504   -7.07321
       O     0.16091    4.01284   -6.33908
      H1     0.37756    4.48845   -5.51473
       H    -3.80210   10.48974  -12.74143
       O    -4.67896   10.90714  -12.97528
      H1    -4.93590   10.18778  -13.55451
       H     0.55946    7.15312   -4.54396
       O     1.04196    6.65389   -5.14944
      H1     0.75109    6.95830   -6.00592
       H    -0.38063    7.19823  -13.86172
       O    -0.26751    6.50902  -13.23965
      H1     0.54849    6.70877  -12.73448
       H     7.06872    8.62632   -8.04059
       O     7.69263    9.10930   -8.61781
      H1     8.43861    9.50845   -8.15868
       H    -3.05270   12.84219  -12.51345
       O    -2.77183   12.82972  -11.57648
      H1    -3.58096   13.11186  -11.17225
       H     4.71398    5.80370  -12.33590
       O     4.59407    4.86836  -12.15223
      H1     5.08270    4.49953  -12.93147
       H    -1.84877    7.90818   -8.24304
       O    -2.68650    7.42314   -8.25224
      H1    -3.26406    7.97025   -8.80282
       H     0.58025    8.93678  -16.59202
       O     0.58443    9.83707  -16.26306
      H1    -0.33948    9.90829  -15.99089
       H    -1.08945    6.45054  -11.00151
       O    -0.84476    5.93145  -10.25235
      H1    -1.53735    6.14142   -9.63647
       H    -1.61024    4.87703   -6.68485
       O    -2.54429    4.94034   -6.84355
      H1    -2.72358    5.87027   -7.07307
       H     1.67966    5.50815  -11.89676
       O     1.99882    6.38484  -11.60676
      H1     2.97857    6.13126  -11.55546
       H     3.37638   12.96579   -7.81600
       O     3.89614   13.19419   -8.56221
      H1     3.79721   14.12792   -8.74498
       H     6.40745   11.76548   -7.48451
       O     6.36056   12.59463   -7.97099
      H1     5.45125   12.81261   -7.95800
       H    -0.10240    4.12961  -15.20299
       O    -0.47823    3.87552  -14.34835
      H1    -0.44864    4.71061  -13.80585
       H    -2.43716    3.27303   -8.22033
       O    -2.75305    2.43869   -8.57711
      H1    -1.95598    1.80692   -8.47300
       H     5.33306    2.98495   -9.23847
       O     6.01311    3.33960   -9.84455
      H1     5.68858    3.30007  -10.76133
       H     0.70438   10.78802   -4.48284
       O     1.10602   11.07046   -3.61666
      H1     1.75418   10.35468   -3.54545
       H     2.90589   13.51210   -5.57689
       O     3.11461   12.55125   -5.72858
      H1     2.49609   12.16422   -4.99711
       H     2.81048    8.56967   -5.26468
       O     3.08407    8.86515   -4.39223
      H1     2.51492    8.29115   -3.87942
       H     3.61946   13.24504  -12.91379
       O     4.11838   14.02728  -13.10228
      H1     4.77512   14.07176  -12.41875
       H    -0.23550   11.14875   -6.26050
       O     0.01004   10.29826   -5.86375
      H1    -0.69650   10.09128   -5.26814
       H     3.54866    4.30150   -4.98189
       O     3.90717    4.52223   -5.87239
      H1     3.32274    5.21699   -6.16868

