180
frame 2 | Written by MDAnalysis XYZWriter (release 2.4.3)
       H   -12.81161    7.46038   14.58465
       O   -12.00910    7.19067   15.02367
      H1   -11.60406    8.01588   15.43665
       H   -10.08824    7.78110   14.19738
       O    -9.51764    7.76686   13.44701
      H1    -8.58780    7.81146   13.80987
       H    -8.41837   15.70436   18.21764
       O    -9.16914   16.22305   18.52866
      H1    -9.85123   16.15046   17.89727
       H    -8.43144   14.73755   14.33219
       O    -9.15825   15.39404   14.50593
      H1    -9.72690   15.22801   13.75681
       H    -3.79762   11.16924   12.58933
       O    -2.98790   11.59878   12.71505
      H1    -2.54352   11.62421   11.85357
       H    -6.31045    8.50531    7.67020
       O    -6.61547    9.38305    7.29460
      H1    -7.48902    9.17925    7.00552
       H   -13.85380   16.12638   17.31620
       O   -13.66967   15.23334   16.89835
      H1   -14.07329   14.60454   17.52185
       H    -1.29338   12.24151    8.79651
       O    -1.46308   12.18593    9.75948
      H1    -0.50339   12.04429   10.13090
       H   -13.89401    9.41300   12.89411
       O   -13.69728   10.32131   13.07897
      H1   -12.75113   10.32184   13.30707
       H   -14.47496   16.61047   13.19851
       O   -14.05974   17.41507   12.85531
      H1   -13.35984   17.60097   13.45442
       H    -5.79178   15.47057   12.08307
       O    -5.27545   14.61542   12.22002
      H1    -4.70756   14.90871   12.92861
       H    -1.27815   14.74892   15.83548
       O    -0.64253   15.32474   15.38111
      H1    -0.72604   14.99952   14.48886
       H    -9.14358   12.51053    8.96332
       O    -8.70988   11.73607    8.62206
      H1    -9.42500   11.04340    8.70812
       H    -8.79891   18.67065   12.15872
       O    -9.07667   19.62668   12.40183
      H1    -9.81814   19.73773   11.79046
       H   -10.91289   16.83436    9.39442
       O    -9.97989   16.62380    9.58757
      H1   -10.06343   15.66473    9.37597
       H    -4.03720   11.79515   18.48788
       O    -3.24878   11.30218   18.71551
      H1    -3.18491   10.68829   17.94926
       H   -10.73456   13.17299    9.71153
       O   -10.36929   13.76805    8.99049
      H1   -10.84467   13.49623    8.17695
       H    -8.92406   11.68689   12.02084
       O    -9.32253   12.21848   12.68179
      H1    -9.92147   11.65368   13.15842
       H    -6.14649   10.90055   14.85861
       O    -5.95679   10.15342   15.44632
      H1    -6.32378    9.47294   14.88330
       H    -6.67288    7.34157   13.64252
       O    -6.95156    7.94626   14.33236
      H1    -7.22904    7.23994   14.99904
       H   -11.54012    9.62892    8.24105
       O   -10.60059    9.59947    8.50715
      H1   -10.36740    8.95472    7.80015
       H   -10.74457   10.08973   14.62096
       O   -10.89509   10.44908   13.71778
      H1   -10.43963    9.82425   13.14999
       H    -8.05833   10.34875   18.01929
       O    -8.15802   10.08489   17.11803
      H1    -7.29633   10.38861   16.71346
       H    -8.69353   18.99548   17.76856
       O    -8.39494   18.49782   16.98234
      H1    -8.63024   17.63197   17.38519
       H    -6.03086   14.95836    9.02889
       O    -6.11557   14.53333    8.11320
      H1    -5.70175   15.18612    7.48999
       H    -6.02903   16.85864   18.21530
       O    -6.25572   16.40908   17.36565
      H1    -5.88796   17.06383   16.80053
       H   -10.25372    8.60656   11.56485
       O   -10.56757    9.47680   11.29608
      H1   -10.78233    9.49059   10.32728
       H    -6.44219   13.90350   13.19093
       O    -7.21559   13.59638   13.74855
      H1    -7.84791   13.29828   13.08941
       H   -11.67307   14.77100   12.22398
       O   -10.80584   15.07905   12.51786
      H1   -10.70921   15.79716   11.79891
       H    -9.22585   16.68213    7.93516
       O    -8.65130   16.21821    7.28970
      H1    -7.99306   15.78681    7.87234
       H    -9.22217    6.27685   12.50235
       O    -8.75317    5.78880   11.77310
      H1    -8.60686    4.92288   12.17916
       H    -2.53540   13.90223   17.84379
       O    -1.72019   13.82380   17.35148
      H1    -1.74937   12.85179   17.42985
       H    -8.01176   11.18313   10.14772
       O    -7.46291   10.90536   10.94656
      H1    -6.75233   11.59678   10.85185
       H    -3.89992   15.30688   14.98357
       O    -3.49674   15.91164   14.38981
      H1    -3.39457   16.71616   14.93516
       H   -11.72681   15.53437   16.64715
       O   -11.00153   16.14680   16.48569
      H1   -10.42963   15.69596   15.82785
       H   -11.00585   11.88894   11.76523
       O   -11.57740   12.15815   10.98398
      H1   -12.08425   11.37778   10.84912
       H    -6.08846   11.28759    7.75314
       O    -5.24972   11.79775    7.58521
      H1    -5.71000   12.70109    7.57499
       H    -6.13881    9.70126   10.80441
       O    -5.25114    9.31012   10.78741
      H1    -4.73492    9.97366   10.38796
       H    -4.70674   12.59664    9.53461
       O    -5.05065   12.20626   10.33911
      H1    -4.90790   12.87032   11.07084
       H    -4.98536   13.78354   16.19107
       O    -4.88437   13.41371   15.26024
      H1    -5.76887   13.38047   14.91903
       H    -7.39047   16.68516   11.26923
       O    -7.30964   16.12527   10.42914
      H1    -8.21689   16.16102   10.14351
       H    -2.21919   13.79700    9.59051
       O    -2.59869   14.60373    9.97404
      H1    -2.58745   15.32962    9.32376
       H   -13.11637   15.55141   10.84288
       O   -12.99724   16.39664   10.37665
      H1   -13.53811   16.95390   10.92280
       H    -5.17384   15.17496   17.76232
       O    -4.43339   14.51776   17.83478
      H1    -4.84341   14.08836   18.62496
       H    -1.90013   15.16309   11.52178
       O    -1.44257   15.27962   12.41392
      H1    -2.14801   15.31625   13.03638
       H    -8.84522   12.22915    7.08070
       O    -8.58741   12.49629    6.18606
      H1    -9.36887   12.71664    5.73756
       H    -7.20498   18.68327   15.89429
       O    -6.75095   18.79652   15.02468
      H1    -5.86100   19.00397   15.36051
       H    -2.70623   11.04237    9.25234
       O    -3.01750   10.29737    8.67752
      H1    -3.80330   10.73989    8.41330
       H    -7.43601   17.76598   13.74960
       O    -7.71808   17.21760   13.00358
      H1    -8.19990   16.48516   13.47862
       H    -5.71952    7.16268   11.69292
       O    -6.12087    6.38185   12.09195
      H1    -7.08318    6.40413   11.78932
       H    -9.91942    9.57506   16.64409
       O   -10.63489    9.11629   16.21442
      H1   -11.17103    8.78885   16.94127
       H    -2.38648   11.24771   14.59701
       O    -2.14322   11.09750   15.51033
      H1    -1.16958   10.73914   15.41616
       H    -3.37276    9.36141   16.04377
       O    -3.78162    8.70626   16.61831
      H1    -4.71829    8.69371   16.44244
       H    -5.75847   17.51305   10.09463
       O    -5.16332   18.21574    9.79314
      H1    -4.54279   18.23495   10.54520
       H   -14.00764   10.74516   11.46448
       O   -14.17240   10.85089   10.47559
      H1   -15.03277   11.36834   10.51623
       H   -11.42683   18.93167   15.07344
       O   -12.29810   18.46325   15.21972
      H1   -11.85907   17.60844   15.52377
       H    -8.00798    6.06450   17.02439
       O    -8.35971    6.66308   16.31458
      H1    -8.14008    7.59055   16.61261
       H    -3.00202   17.38268   17.13933
       O    -3.42374   17.76937   16.34136
      H1    -3.02025   18.68361   16.32448
       H    -9.77884   14.36993   19.04353
       O   -10.23375   13.56997   19.38587
      H1   -11.22018   13.88091   19.29828
       H   -12.99338   13.16088   11.71678
       O   -13.59893   13.89413   11.85214
      H1   -13.66021   13.83417   12.80605

