180
frame 6 | Written by MDAnalysis XYZWriter (release 2.4.3)
       H   -16.36218   -7.36606   -2.75492
       O   -15.92412   -7.23129   -3.61364
      H1   -16.37864   -7.81076   -4.25523
       H   -12.31589   -2.99763   -4.47359
       O   -12.68303   -2.36348   -3.80664
      H1   -13.53284   -2.83645   -3.72790
       H   -11.84102   -7.15465   -1.55115
       O   -11.92492   -7.88242   -2.21388
      H1   -11.06328   -7.87240   -2.63034
       H    -7.21872    1.18057   -8.13892
       O    -7.17977    0.33154   -7.67966
      H1    -8.12809    0.18312   -7.66680
       H   -14.17630    1.54949   -6.06240
       O   -14.25633    2.37927   -6.57682
      H1   -14.27083    2.03485   -7.49725
       H    -7.52624   -7.70256   -6.90378
       O    -7.90822   -7.89407   -6.02291
      H1    -7.29300   -7.42373   -5.46174
       H    -9.92726   -3.75138   -5.33844
       O   -10.90679   -3.82854   -5.16419
      H1   -11.01519   -4.80383   -5.40926
       H    -6.81060   -2.13625  -10.18017
       O    -7.55212   -2.10697   -9.51235
      H1    -7.35881   -1.30006   -9.00949
       H   -10.79575   -2.33546   -0.15340
       O   -10.11507   -1.70605   -0.44567
      H1    -9.35980   -2.18453   -0.03183
       H   -12.29071    2.47144   -1.93049
       O   -11.84740    1.80027   -1.42744
      H1   -11.25642    1.26761   -1.99309
       H   -13.61047    1.22768   -1.25678
       O   -14.58551    1.28204   -1.28961
      H1   -14.73281    2.21280   -1.01103
       H    -9.19737   -6.85419   -8.57863
       O    -9.91333   -6.15437   -8.41018
      H1   -10.52763   -6.32482   -9.13781
       H   -12.63727   -3.17364   -9.59745
       O   -12.10876   -2.36718   -9.82971
      H1   -12.02472   -1.99823   -8.93195
       H    -6.00798   -5.11697   -2.72336
       O    -5.59897   -4.88366   -1.85047
      H1    -4.70437   -5.16579   -1.94741
       H   -11.20406   -7.19900  -11.66727
       O   -11.08160   -7.20523  -10.71127
      H1   -11.47251   -8.12031  -10.43602
       H   -15.32268   -4.10362   -8.76593
       O   -16.23507   -4.04446   -8.50928
      H1   -16.22809   -3.29759   -7.86488
       H   -10.08910   -4.24107  -10.94170
       O    -9.14238   -3.96031  -10.82251
      H1    -9.17270   -3.41611  -10.04658
       H   -13.12159   -3.31972    0.73972
       O   -12.14558   -3.29822    0.53155
      H1   -11.64587   -3.41533    1.33843
       H   -10.91954   -6.02187   -7.11352
       O   -11.47138   -6.15165   -6.26925
      H1   -11.19541   -7.01474   -6.04376
       H   -13.82792   -0.92217   -5.17025
       O   -13.98688   -0.55515   -6.04777
      H1   -13.21667   -0.90569   -6.54573
       H   -12.03559   -3.77974  -11.17200
       O   -11.84591   -4.19085  -12.02046
      H1   -12.58674   -4.81472  -12.01823
       H    -6.37803   -5.73963   -0.32540
       O    -6.86220   -6.54600   -0.10373
      H1    -7.26168   -6.40602    0.74727
       H   -13.14548   -9.46957   -1.48077
       O   -14.00021   -9.88289   -1.30207
      H1   -14.04587  -10.78971   -1.61940
       H   -16.56644   -5.64223   -7.73410
       O   -17.10163   -6.45402   -7.79485
      H1   -17.99203   -6.07012   -7.81522
       H   -11.44170    1.16131    0.29211
       O   -11.21239    0.64529    1.07343
      H1   -10.56929    0.02658    0.71342
       H   -13.40955   -8.66426   -3.33262
       O   -13.78369   -8.84562   -4.22238
      H1   -14.52963   -8.21436   -4.14479
       H    -7.93845   -3.90996    1.14244
       O    -8.14594   -3.07877    0.72647
      H1    -7.49149   -2.91140    0.03518
       H    -7.21340  -10.91337   -4.67525
       O    -6.84913  -10.70255   -5.57635
      H1    -7.38055   -9.94882   -5.79410
       H    -9.32780   -1.16492   -4.02252
       O    -8.61387   -0.96901   -4.68990
      H1    -7.94665   -0.68749   -4.03823
       H   -17.19750   -1.24588   -7.67370
       O   -16.49962   -1.60439   -7.19306
      H1   -15.97560   -0.81529   -7.02299
       H    -6.53708    0.64864   -2.45067
       O    -6.04516   -0.02960   -2.91136
      H1    -6.28387   -0.75033   -2.29425
       H    -8.82667   -7.97103   -2.60407
       O    -9.22358   -8.78153   -2.94660
      H1    -9.16403   -8.59024   -3.88800
       H   -14.00873   -0.35463  -11.04148
       O   -14.61449   -0.82068  -10.44841
      H1   -13.96950   -1.21912   -9.82688
       H   -12.58263    4.04375   -4.58232
       O   -12.63803    3.12029   -4.17460
      H1   -11.64430    3.14209   -4.02975
       H   -12.03115   -9.30784   -5.08600
       O   -11.31113   -9.15196   -5.74727
      H1   -10.88746  -10.02304   -5.75643
       H    -9.04442   -0.15187   -6.35864
       O    -9.73879   -0.11914   -7.05268
      H1   -10.43497    0.46600   -6.69849
       H    -7.81193   -3.67131   -8.60106
       O    -7.95776   -4.36618   -7.93822
      H1    -8.74998   -4.83619   -8.34149
       H    -9.70562   -6.03162   -1.63255
       O    -8.83612   -6.20639   -1.95197
      H1    -8.31329   -6.42827   -1.19187
       H   -10.39620  -10.77940   -0.28975
       O   -11.00354  -10.50904   -0.96296
      H1   -10.73575   -9.61337   -1.23693
       H   -15.91191   -1.47061   -2.34864
       O   -15.94937   -0.62850   -2.80510
      H1   -15.23487   -0.10633   -2.42370
       H   -11.49789   -2.46752   -6.79247
       O   -11.87232   -1.70587   -7.29967
      H1   -11.09926   -1.06863   -7.32062
       H   -10.46795    2.03044   -8.43247
       O    -9.78802    2.40494   -9.04503
      H1    -9.88596    1.75813   -9.76171
       H    -6.33964   -5.14510   -8.54327
       O    -5.44587   -5.46454   -8.78449
      H1    -5.16874   -6.06462   -8.05192
       H    -5.05120   -1.61811   -0.87680
       O    -5.90080   -2.14193   -0.98180
      H1    -5.57269   -2.99679   -1.29739
       H    -8.44200   -8.42767   -9.09389
       O    -7.76539   -7.72217   -8.96842
      H1    -7.50361   -7.44019   -9.89800
       H    -3.23835   -6.22296   -6.44280
       O    -4.16523   -6.49098   -6.43243
      H1    -4.54015   -5.57889   -6.29245
       H   -10.75612    2.78207   -5.99197
       O   -11.18563    2.08141   -6.59027
      H1   -12.06537    2.12904   -6.18514
       H   -15.57057   -2.86030   -5.23335
       O   -15.31202   -3.25911   -4.38323
      H1   -15.69813   -4.12057   -4.39267
       H   -12.68166   -7.14745   -7.31585
       O   -13.32319   -7.24937   -8.03431
      H1   -13.47301   -8.18431   -7.87036
       H   -11.38076   -4.90835   -1.88481
       O   -11.45527   -5.46499   -1.05993
      H1   -11.60748   -4.88405   -0.31697
       H    -6.08071   -8.22112   -2.33862
       O    -5.16349   -8.53512   -2.42921
      H1    -5.19644   -8.72861   -3.38168
       H   -14.43008  -11.44449   -5.60577
       O   -14.14569  -10.75669   -6.29104
      H1   -14.15387   -9.92121   -5.82764
       H    -8.12551   -2.41141   -5.41197
       O    -8.08920   -3.39102   -5.46560
      H1    -8.13981   -3.55069   -6.49162
       H    -6.99578   -4.82609   -4.67936
       O    -6.28843   -5.47854   -4.48916
      H1    -5.46911   -4.96104   -4.59004
       H   -16.84454   -5.73821   -3.16453
       O   -17.41098   -4.99793   -3.29355
      H1   -17.06179   -4.28651   -2.72056
       H   -10.80463   -0.80555   -2.22187
       O   -11.03013   -0.29861   -3.02913
      H1   -11.68224   -0.90286   -3.47462
       H   -14.13069   -4.87939  -10.05772
       O   -13.58150   -4.57992   -9.24777
      H1   -13.17085   -5.38396   -8.83340
       H    -6.04125    0.59784   -6.11919
       O    -5.65630    0.97116   -5.32744
      H1    -5.99669    0.37636   -4.58121
       H   -16.68441   -9.15163   -6.66550
       O   -16.16555   -8.45334   -6.26160
      H1   -16.45593   -7.69782   -6.73455
       H    -5.00500   -3.07552   -6.94973
       O    -5.09944   -3.59068   -6.07797
      H1    -6.03652   -3.86538   -6.10316

