180
frame 11 | Written by MDAnalysis XYZWriter (release 2.4.3)
       H   -16.27040   -5.96020   -3.63580
       O   -16.23971   -5.53867   -4.53748
      H1   -17.22139   -5.43558   -4.68342
       H   -11.18834   -3.63056   -3.27097
       O   -11.45321   -3.11526   -2.51280
      H1   -12.26055   -2.53655   -2.80126
       H   -13.79053   -7.66221   -1.77261
       O   -13.35597   -8.52441   -1.90941
      H1   -12.40088   -8.33878   -1.89446
       H   -13.82772    0.84279   -6.79663
       O   -14.00155    1.55786   -7.43694
      H1   -14.22317    1.14498   -8.28540
       H    -9.97558   -3.78054   -5.05897
       O   -10.95871   -3.89744   -5.07398
      H1   -11.01062   -4.82096   -5.37673
       H    -9.98598   -2.25053    0.20439
       O    -9.15511   -1.77521    0.46392
      H1    -8.55672   -2.49134    0.73408
       H    -8.91320    2.95573   -1.20763
       O    -9.33837    2.91584   -0.35300
      H1    -8.79081    2.29669    0.08207
       H   -13.23870    4.12621   -1.46105
       O   -13.31053    3.59575   -0.69801
      H1   -14.24107    3.66583   -0.37631
       H   -11.08408    0.48164   -1.75380
       O   -11.74905    1.08378   -1.34626
      H1   -11.37065    1.93779   -1.61143
       H   -13.44365   -3.70844   -9.11228
       O   -12.96881   -2.86792   -9.11967
      H1   -12.63795   -2.69348   -8.22483
       H   -15.39858   -4.91007   -8.33069
       O   -16.20972   -4.61751   -7.87219
      H1   -15.97301   -3.79310   -7.59320
       H   -13.86265   -4.22817   -1.20380
       O   -14.73120   -3.75300   -1.14555
      H1   -14.84478   -3.72644   -0.16658
       H   -12.28848   -3.60487    1.71413
       O   -11.31896   -3.53426    1.55029
      H1   -11.03406   -4.23188    2.06152
       H   -10.82776   -6.05534   -6.92287
       O   -11.59855   -6.21988   -6.28049
      H1   -11.24262   -6.85792   -5.60062
       H   -13.93092   -0.55012   -4.94990
       O   -13.88445   -0.56437   -5.89716
      H1   -13.09538   -1.12150   -6.04565
       H   -11.49006    0.36772    4.95944
       O   -11.71682   -0.43670    4.50192
      H1   -12.32900   -0.21338    3.83303
       H   -17.68308   -4.64751   -6.83969
       O   -18.21301   -4.51881   -6.03437
      H1   -19.02608   -4.92218   -6.42571
       H   -18.27515   -1.46926   -5.95250
       O   -18.97932   -1.94292   -5.51089
      H1   -18.72320   -2.87358   -5.64225
       H   -11.52364    0.45366    0.12661
       O   -11.42546    0.02852    0.98687
      H1   -10.53551   -0.31758    0.86326
       H   -19.25543   -4.33521   -0.09039
       O   -18.37460   -4.71323   -0.30191
      H1   -17.85621   -4.16654    0.29140
       H   -13.68014   -8.95032   -3.68777
       O   -13.54945   -9.05263   -4.66489
      H1   -14.28605   -8.45227   -4.89897
       H   -10.13281   -0.71468    3.38448
       O    -9.16299   -1.05555    3.17166
      H1    -9.20402   -1.45617    2.28537
       H   -15.72233    0.93584    0.58958
       O   -16.06141    0.18703    0.06406
      H1   -15.45335   -0.54036    0.25322
       H    -8.62248   -1.33517   -3.39176
       O    -7.80775   -1.32593   -3.88032
      H1    -7.16669   -1.23197   -3.19024
       H   -14.65215   -4.27347    2.09609
       O   -14.03781   -3.74886    1.60345
      H1   -14.41958   -2.90632    1.59437
       H   -16.16629   -1.39788   -7.91109
       O   -15.99639   -1.92761   -7.09079
      H1   -15.25405   -1.35807   -6.74510
       H   -12.95461   -0.63097    1.40722
       O   -13.89429   -0.77328    1.66202
      H1   -14.10401   -0.09517    2.35189
       H   -15.30078    3.38427    1.90411
       O   -15.52675    3.09462    1.03036
      H1   -16.31677    3.67498    0.82162
       H   -14.31424    0.03970  -10.17076
       O   -14.69689   -0.40732   -9.35473
      H1   -14.32860   -1.30137   -9.45735
       H   -12.16790    3.62379   -5.77516
       O   -11.74957    3.22242   -5.04932
      H1   -11.20337    3.94110   -4.72066
       H   -11.74389   -8.55324   -4.44543
       O   -11.01895   -7.94158   -4.39810
      H1   -10.39072   -8.28176   -4.97090
       H   -15.05840    2.67307   -6.34888
       O   -15.73743    3.25041   -5.97707
      H1   -15.72678    3.24266   -4.99193
       H    -8.99852   -0.60420   -5.34031
       O    -8.96754   -0.54319   -6.31006
      H1    -9.06296    0.42450   -6.38525
       H   -10.83098   -6.24031   -0.50108
       O   -10.09089   -6.66498   -0.92280
      H1    -9.27501   -6.34812   -0.49137
       H   -11.15574    2.07568    2.17974
       O   -11.13492    2.60876    2.99177
      H1   -10.15872    2.63088    3.20395
       H   -17.68833   -1.88603    0.62681
       O   -17.00638   -2.48303    0.92221
      H1   -17.17774   -2.65327    1.85693
       H   -17.67261    0.66297    0.53751
       O   -18.28536    1.11484    1.16844
      H1   -17.78216    0.93886    1.98588
       H   -15.05382    0.83799   -1.25911
       O   -14.88962    1.35352   -2.06258
      H1   -13.97730    1.73407   -1.77423
       H   -11.29916   -2.66609   -6.29081
       O   -11.65390   -1.93928   -6.83177
      H1   -10.85204   -1.45507   -7.02547
       H   -14.90834    0.11176    4.36290
       O   -14.66842    0.86909    3.76831
      H1   -15.46455    1.38154    3.65649
       H   -15.36675   -6.77348   -1.06981
       O   -15.06575   -6.32171   -1.90266
      H1   -14.95781   -5.43434   -1.54018
       H    -9.02174    2.78020   -6.22019
       O    -9.68637    2.12803   -6.51075
      H1   -10.50397    2.38272   -6.04305
       H   -18.22984   -4.11086   -3.19218
       O   -19.09531   -4.50540   -3.08106
      H1   -19.16443   -4.48860   -2.14297
       H   -15.80221    2.96202   -2.89529
       O   -15.92434    3.89048   -3.11068
      H1   -16.87206    3.97434   -3.09647
       H   -19.01534   -7.49916   -4.56679
       O   -19.09370   -7.18875   -3.64275
      H1   -19.12059   -6.17238   -3.70569
       H   -14.37626   -0.59135   -2.72509
       O   -13.99399   -1.41704   -3.09838
      H1   -14.81941   -1.97126   -3.08883
       H   -17.56584    1.14285   -4.93079
       O   -17.46294    1.11252   -5.90768
      H1   -16.98711    2.00878   -6.02177
       H   -12.60211   -7.21924   -7.09687
       O   -13.25758   -7.68925   -7.64165
      H1   -13.90886   -7.77032   -6.90771
       H   -12.11096   -4.61996   -1.45672
       O   -12.56137   -5.11121   -0.77364
      H1   -12.38190   -4.62944    0.05504
       H   -19.42837    2.23337   -7.61428
       O   -19.83621    2.13278   -6.76374
      H1   -19.11656    1.75485   -6.21540
       H   -19.23276   -1.45690   -3.65546
       O   -19.00029   -1.00927   -2.85355
      H1   -18.76415   -1.73489   -2.29216
       H    -7.78357   -2.81057   -5.00578
       O    -8.19595   -3.53038   -5.52495
      H1    -8.39851   -3.19427   -6.45149
       H   -18.45168   -0.48053   -8.15802
       O   -17.58909   -0.09199   -8.30381
      H1   -17.46571    0.40275   -7.45055
       H   -16.38890   -3.72595   -3.93788
       O   -16.55833   -3.02636   -3.26337
      H1   -15.96882   -3.28387   -2.52700
       H    -9.37714   -1.23759   -1.26832
       O    -9.77245   -1.02737   -2.13438
      H1   -10.26327   -1.85896   -2.28995
       H   -14.28192   -5.81336   -9.97033
       O   -13.76164   -5.52032   -9.23569
      H1   -13.72890   -6.35955   -8.71913
       H   -13.34374    4.75239   -4.20469
       O   -13.61278    4.93423   -3.29289
      H1   -14.50568    4.49111   -3.36193
       H   -16.59719    0.99599   -2.82623
       O   -17.46987    1.15622   -3.20806
      H1   -17.91010    0.26918   -3.06857
       H    -6.82521    0.68623   -5.63050
       O    -6.84496    1.07455   -4.75174
      H1    -7.38711    0.43907   -4.19082
       H   -15.74297   -6.95237   -5.44864
       O   -15.45029   -7.67994   -5.99670
      H1   -16.20439   -8.33321   -5.86577

