180
frame 9 | Written by MDAnalysis XYZWriter (release 2.4.3)
       H     8.76982    8.17646    1.21677
       O     9.31690    8.17297    2.02461
      H1     9.14331    8.98436    2.51400
       H     6.42001   16.90184    1.90570
       O     6.85365   16.05160    2.17020
      H1     7.69741   16.32526    2.49164
       H    12.71306   15.26824   -1.09498
       O    11.97045   15.38670   -0.44673
      H1    11.45864   16.00705   -0.91253
       H    14.99900   12.19550    4.97697
       O    15.49330   13.04328    4.97386
      H1    14.91471   13.63756    4.43579
       H     9.89718    9.69270    5.18485
       O    10.51364    9.12956    5.67955
      H1     9.93471    8.31736    5.76980
       H    16.44936   14.20627    1.48026
       O    16.85056   14.67761    2.25875
      H1    17.60251   14.07913    2.48148
       H     9.38565   16.84126    0.78573
       O     9.49283   17.19827   -0.11889
      H1     8.97998   18.04200    0.00635
       H     9.77347   12.29935    1.48038
       O     8.94712   11.99358    1.14954
      H1     8.36535   12.73225    1.08388
       H     3.03573   14.40025    1.05164
       O     2.77450   13.77195    1.74625
      H1     3.55335   13.62602    2.33621
       H     6.12007   19.32480    1.61255
       O     5.53086   18.81523    2.27261
      H1     4.72407   18.72084    1.73823
       H    14.07621   15.76784   -2.60726
       O    13.62204   14.90924   -2.36216
      H1    13.11729   14.85930   -3.20617
       H    12.37359   17.89913    0.98977
       O    12.62987   18.66645    0.44568
      H1    13.20546   19.10542    1.08517
       H    10.72329   11.87275   -2.12486
       O    11.62326   11.66352   -2.55699
      H1    12.17180   11.66757   -1.77965
       H    12.21955   18.08052    5.00470
       O    12.95407   18.60988    5.35317
      H1    12.42916   19.13307    6.01292
       H     6.44610   10.51965   -0.29351
       O     6.73200   10.09153   -1.13782
      H1     6.19442   10.70090   -1.73459
       H    15.27487   12.20180    0.30866
       O    16.05441   12.77438    0.36152
      H1    16.20954   12.98423   -0.57927
       H     8.33785   14.44156   -1.78896
       O     7.85258   15.24645   -1.88668
      H1     8.30413   15.88117   -1.19719
       H     4.22679   11.21699    0.81262
       O     3.49436   11.32681    0.14119
      H1     3.13699   12.17875    0.49696
       H    14.41469   13.02789   -2.48116
       O    14.94027   12.30404   -2.82752
      H1    14.59073   12.26746   -3.73176
       H     7.67893   19.36453   -3.39903
       O     8.02788   19.04839   -2.54523
      H1     8.55338   18.31600   -2.76857
       H     9.07338   14.63392    3.21086
       O     9.61462   15.23701    2.73681
      H1    10.09274   15.78480    3.34913
       H    10.96045   14.00593   -4.81905
       O    11.76001   13.93855   -4.31422
      H1    11.51095   13.26121   -3.66436
       H     3.31517   17.22550    2.09583
       O     3.13292   17.79575    1.32814
      H1     2.79829   17.14591    0.69359
       H    12.05053   12.56076    2.32966
       O    11.52895   11.73738    2.29461
      H1    12.13148   11.15057    2.84058
       H    14.24397   10.02816    5.06820
       O    15.09704   10.38287    5.53413
      H1    15.73162    9.62343    5.42287
       H     9.28458   14.25409    7.11936
       O     9.24771   15.24511    7.19783
      H1     8.50366   15.51500    6.61531
       H     8.90124   11.71758   -0.89344
       O     8.96536   11.95746   -1.83933
      H1     8.43940   11.25647   -2.32915
       H     6.38836   17.37729    6.92024
       O     6.77039   17.14196    6.09661
      H1     6.01916   16.57489    5.73300
       H     3.87382   16.28878    5.06650
       O     3.90285   16.28688    6.02044
      H1     3.17899   16.88973    6.19946
       H    13.27945   18.32518    8.62052
       O    14.15646   18.67487    8.63436
      H1    14.67652   17.87699    8.37594
       H     9.61098   11.80009    7.69795
       O     9.11195   12.47517    7.23171
      H1     8.18267   12.27169    7.44583
       H     4.71943   14.85412   -2.77604
       O     5.11838   15.08126   -1.94586
      H1     6.09436   15.02598   -2.03521
       H     6.08288   17.51586    9.13667
       O     6.03721   18.29822    8.63426
      H1     6.91274   18.66551    8.83013
       H    10.40527   17.31938    4.83064
       O    11.03432   17.09430    4.05898
      H1    11.22489   16.19349    4.35495
       H    12.25667   11.20904    0.63203
       O    13.06041   11.06349    0.05707
      H1    13.16942   10.12743   -0.11602
       H     7.79121   12.71447    4.57784
       O     7.62231   13.68178    4.42376
      H1     6.63990   13.62482    4.35793
       H     3.44973   10.53952    4.79579
       O     4.18201   10.69021    4.23314
      H1     4.56046    9.86856    3.89959
       H     2.36721   15.44485   -0.73902
       O     3.16020   15.52655   -0.15267
      H1     3.88645   15.36488   -0.72936
       H     6.71856   11.13604    1.65534
       O     5.90739   10.74511    1.34641
      H1     5.97710    9.91870    1.91000
       H    11.37611   14.68860    2.25780
       O    12.29084   14.36964    2.09916
      H1    12.42140   14.70252    1.21812
       H     5.96004   11.59539    8.33468
       O     6.48682   12.42811    8.25423
      H1     5.85077   12.98905    7.82628
       H    12.07365   10.06296    4.82479
       O    12.68551   10.02375    4.06899
      H1    12.45060    9.17072    3.68478
       H    14.80223   18.01505    5.31246
       O    15.39987   17.23935    5.21687
      H1    14.96972   16.66638    4.63239
       H     4.20433   14.98081    7.14403
       O     4.43058   14.12976    7.47472
      H1     3.70694   13.55129    7.21433
       H    11.77376   16.38628    8.86771
       O    11.67961   16.83265    8.02051
      H1    10.85110   17.38766    8.10849
       H     6.71820   14.38222    1.39791
       O     6.90045   13.62574    0.81637
      H1     6.89647   13.94561   -0.07635
       H     4.83477   16.44492    2.96311
       O     4.02120   16.12312    3.34337
      H1     3.89834   15.26175    2.96041
       H     8.24665   17.68002    5.83182
       O     9.20690   17.92860    5.83544
      H1     9.16819   18.87332    5.79734
       H    14.28780   16.10218    6.14614
       O    13.71537   15.52347    6.66411
      H1    13.11256   16.21137    7.02082
       H    10.74622   14.85111    6.30337
       O    11.23984   14.72658    5.44632
      H1    12.14118   14.95740    5.71273
       H     8.13194   13.62335    9.30202
       O     8.18622   14.49130    9.66008
      H1     8.64763   14.93504    8.94860
       H    13.65522   15.19269    3.07191
       O    14.46722   15.23821    3.57910
      H1    15.02958   14.88126    2.83810
       H    15.14421   12.55840    7.88316
       O    14.35882   13.08564    8.11603
      H1    14.12817   13.66186    7.38037
       H    12.34894   18.42769   -2.47305
       O    11.56126   18.09860   -2.04259
      H1    11.55971   18.34909   -1.12512
       H     9.98433   11.80044    3.98909
       O     9.33546   11.35922    4.55293
      H1     9.45578   11.87205    5.41325
       H     4.30602   17.96293   -1.64740
       O     4.17869   18.07178   -2.61161
      H1     4.31994   19.04758   -2.73268
       H     8.93365   16.35151   -2.93924
       O     9.41640   16.71362   -3.66841
      H1    10.21361   17.04373   -3.15464
       H     5.56640   12.77090    2.67662
       O     4.91257   13.17635    3.24657
      H1     4.67649   12.42851    3.83763
       H     6.30970   18.40731   -1.09512
       O     6.09356   17.57909   -0.68977
      H1     5.73820   16.96712   -1.34146
       H    10.56394   18.41130    2.77725
       O    10.13127   19.27589    2.45286
      H1    10.79281   19.95794    2.76237

