180
frame 9 | Written by MDAnalysis XYZWriter (release 2.4.3)
       H    -1.14694   -8.53768  -13.84995
       O    -1.05116   -8.07420  -13.03962
      H1    -0.89491   -8.81112  -12.42852
       H    -5.61432  -10.55857  -18.87143
       O    -5.63644  -10.59630  -19.82724
      H1    -5.72474  -11.46918  -20.10957
       H    -4.39619  -13.04994  -14.66663
       O    -5.12085  -13.23394  -15.26511
      H1    -5.11011  -12.39077  -15.79895
       H    -9.35298   -7.36649  -17.37703
       O    -9.79645   -8.24509  -17.29720
      H1   -10.29609   -8.30850  -18.12084
       H    -5.94200  -13.34956  -13.65764
       O    -6.62081  -13.35062  -12.96614
      H1    -6.61004  -14.30484  -12.77663
       H    -1.63105  -12.20000   -7.34736
       O    -2.05900  -12.69520   -8.07498
      H1    -2.30708  -11.99857   -8.66673
       H    -2.38346  -11.09721  -14.24923
       O    -3.04501  -11.65356  -13.93681
      H1    -2.55150  -12.37955  -13.47428
       H   -11.81014  -15.31010  -13.67747
       O   -11.52328  -15.44286  -14.54262
      H1   -12.13495  -16.09905  -14.84856
       H    -2.51135  -12.25653  -17.91720
       O    -2.20941  -11.97642  -17.01260
      H1    -2.15233  -12.85301  -16.59415
       H    -9.45935  -12.28450  -13.64180
       O    -8.83911  -11.99149  -14.35067
      H1    -7.95813  -12.18046  -13.93270
       H    -7.25821   -9.35435  -14.74580
       O    -6.37833   -9.40212  -15.13557
      H1    -6.14024   -8.46938  -15.23715
       H    -2.26071  -17.25375  -14.61715
       O    -1.94983  -17.88855  -15.30863
      H1    -1.16688  -18.31329  -14.85634
       H    -0.33271  -17.76364  -18.20477
       O    -1.16478  -18.17850  -18.43976
      H1    -1.61643  -18.44629  -17.60338
       H     1.78962  -13.30744  -16.87761
       O     2.73278  -12.95854  -16.74984
      H1     3.14470  -13.70543  -17.19150
       H    -1.57716  -14.84028  -16.53053
       O    -2.20793  -14.61956  -15.82496
      H1    -3.06301  -14.80760  -16.18601
       H   -10.25897  -10.82690  -18.39035
       O   -10.93468  -10.35806  -18.96670
      H1   -11.80776  -10.47427  -18.53334
       H    -0.13649  -15.92756  -10.74519
       O    -0.05292  -16.63005  -11.40253
      H1     0.18795  -16.17712  -12.22749
       H    -2.94218  -18.42183   -8.69254
       O    -3.89819  -18.35354   -8.84720
      H1    -4.09972  -19.30222   -8.69603
       H    -3.24379   -7.58054  -17.84726
       O    -3.42085   -6.72552  -17.36345
      H1    -4.38304   -6.55292  -17.55858
       H    -6.64207  -17.97386  -15.23142
       O    -5.67830  -17.92969  -15.08358
      H1    -5.24967  -18.62757  -15.64663
       H    -9.20520  -12.61170  -17.53590
       O    -8.61379  -11.81758  -17.65284
      H1    -8.08143  -12.05699  -18.36633
       H   -13.07228  -17.81756  -18.11525
       O   -12.89217  -17.75777  -17.15606
      H1   -12.91975  -18.68748  -16.89651
       H    -9.02583  -17.14739  -16.58053
       O    -8.48662  -16.96770  -15.84651
      H1    -8.25674  -16.02086  -15.90304
       H    -9.33938   -8.34268  -14.01136
       O    -8.69153   -8.88810  -13.57810
      H1    -8.86342   -9.78351  -13.71225
       H    -5.48518  -17.22667   -8.88263
       O    -6.24596  -16.74888   -9.25271
      H1    -6.01475  -15.82273   -9.26374
       H    -3.39426   -9.97978  -10.98910
       O    -3.41100  -10.85012  -11.39486
      H1    -3.54635  -10.65785  -12.32415
       H    -3.89060  -15.76792  -12.97124
       O    -2.98207  -15.99456  -13.05368
      H1    -2.84093  -16.68503  -12.38624
       H    -1.81896  -14.33687  -13.55736
       O    -1.38046  -13.68131  -13.04869
      H1    -1.34534  -14.02582  -12.14493
       H   -10.55008  -10.97040  -12.35346
       O   -11.37447  -10.76479  -12.83259
      H1   -11.56794   -9.89222  -12.53153
       H    -7.89222  -13.81075  -14.94178
       O    -8.03232  -14.24369  -15.81014
      H1    -8.05880  -13.44123  -16.31806
       H   -12.23805  -13.80841  -17.80184
       O   -13.10663  -14.10889  -18.19635
      H1   -13.52279  -13.39873  -18.65536
       H    -6.19126  -12.42581  -11.24905
       O    -5.75174  -12.27162  -10.40864
      H1    -4.93578  -11.74492  -10.71763
       H   -11.92236  -11.37149  -14.79613
       O   -11.66028  -11.12871  -15.70468
      H1   -10.67200  -11.16221  -15.66269
       H    -6.30670  -16.50010  -11.80111
       O    -6.12501  -16.25106  -12.71071
      H1    -5.95070  -17.04307  -13.18522
       H    -8.95265  -15.65176  -11.41472
       O    -9.10411  -14.81813  -10.99190
      H1    -8.76508  -14.94838  -10.08618
       H   -12.80884  -14.40209  -11.88893
       O   -11.92537  -14.80325  -12.03488
      H1   -12.06485  -15.57742  -11.51960
       H     2.12810  -17.21173  -17.47772
       O     1.52080  -16.90090  -18.15039
      H1     2.08585  -16.71012  -18.90007
       H     2.45597  -17.06309  -15.42748
       O     3.00686  -17.58307  -15.99563
      H1     3.85262  -17.05869  -16.14236
       H    -0.71992  -10.80279  -16.52802
       O    -0.57431  -10.20372  -15.77448
      H1     0.06473   -9.65226  -16.19561
       H     1.15405  -15.27979  -14.38685
       O     1.33351  -16.22084  -14.11928
      H1     2.08934  -16.04726  -13.51533
       H    -5.13883  -14.97713  -15.80231
       O    -4.59961  -15.62133  -16.35512
      H1    -4.74833  -16.39845  -15.76052
       H    -6.74445  -14.85001  -18.89809
       O    -7.48489  -14.26215  -19.13256
      H1    -6.95402  -13.80525  -19.86141
       H    -8.08669   -8.66743  -17.60267
       O    -7.16616   -8.85559  -17.72250
      H1    -6.94868   -9.38607  -16.89488
       H    -3.88063  -11.20736  -16.62481
       O    -4.81485  -10.94635  -16.70478
      H1    -4.95184  -10.45980  -15.83834
       H    -9.48611  -12.93532  -11.19848
       O    -9.41056  -11.98252  -11.37432
      H1    -8.96409  -11.71189  -10.56204
       H     0.72501  -15.36522  -17.70715
       O     0.40365  -14.47724  -17.36957
      H1     0.28212  -13.98219  -18.22219
       H     0.17964  -13.61158  -13.77746
       O     0.87391  -13.57076  -14.41838
      H1     1.33006  -12.73554  -14.23755
       H     1.70562  -10.29332  -14.35321
       O     1.69200  -10.97130  -13.62477
      H1     0.93105  -10.59308  -13.16416
       H     0.12243  -13.46391  -10.22987
       O    -0.73491  -13.91008  -10.46145
      H1    -1.28777  -13.70487   -9.67695
       H    -2.63347   -9.97447  -17.72738
       O    -2.41759   -9.22741  -18.31705
      H1    -1.49819   -9.44028  -18.52121
       H   -11.09790  -12.73159  -16.40375
       O   -10.70438  -13.33393  -17.05908
      H1   -10.56335  -14.14530  -16.59550
       H    -8.98706  -17.81372  -12.11389
       O    -8.41954  -18.19246  -11.41564
      H1    -8.90962  -17.91368  -10.60604
       H    -4.27366  -13.87528   -8.01907
       O    -5.07737  -14.17464   -8.54306
      H1    -5.37773  -13.33281   -8.95405
       H    -6.68219  -16.95598  -18.68427
       O    -5.86534  -16.32381  -18.77818
      H1    -5.55814  -16.15336  -17.86388
       H    -9.10867  -16.94354  -19.03414
       O    -8.39016  -17.67715  -19.09391
      H1    -8.99704  -18.39973  -19.26631
       H    -1.56719  -10.85122  -11.37938
       O    -0.70511  -10.45718  -11.59423
      H1    -0.30643  -10.31996  -10.72025
       H    -2.02239   -9.36148  -15.55524
       O    -2.75850   -8.78371  -15.35119
      H1    -2.77739   -8.08950  -16.01419
       H    -9.44758  -17.42489  -14.21229
       O   -10.06626  -17.49066  -13.54643
      H1   -10.67980  -16.82164  -13.84708
       H    -5.74649   -6.02476  -16.74728
       O    -5.97603   -6.17825  -17.70595
      H1    -6.28929   -7.06067  -17.73683
       H    -3.63077  -19.14099  -11.91653
       O    -2.98952  -18.45840  -11.55772
      H1    -3.47855  -18.25967  -10.69244

