180
frame 1 | Written by MDAnalysis XYZWriter (release 2.4.3)
       H    -2.11658   13.40500   -2.61021
       O    -2.02306   13.55447   -1.65220
      H1    -1.99452   14.52469   -1.57825
       H     8.77373   15.40059   -5.03125
       O     9.49907   15.65924   -4.44491
      H1     9.20751   16.26645   -3.76095
       H     7.24636   15.91013    5.31496
       O     7.15455   15.07187    4.85519
      H1     7.99919   14.66011    5.13001
       H    -0.59583   18.17339   -1.26037
       O    -0.56151   19.06685   -0.95257
      H1    -0.58951   19.54333   -1.81202
       H    -4.74360   16.19759   -5.29584
       O    -3.93174   16.47608   -4.82744
      H1    -3.94077   15.85784   -3.98748
       H    -0.77167   12.04806   -1.76225
       O    -0.47804   11.19150   -1.41699
      H1     0.18735   10.81417   -2.02393
       H     6.90863   14.97217   -1.40309
       O     7.13357   14.02676   -1.35656
      H1     6.62862   13.64293   -2.11321
       H    -4.13545   18.68334    3.12458
       O    -3.56401   17.90434    3.28861
      H1    -2.87945   18.09499    2.57684
       H     6.94117   13.74165    1.37404
       O     7.11914   12.81142    1.37389
      H1     6.72859   12.47878    2.23350
       H     3.33910   15.13922   -2.00452
       O     3.68504   15.96132   -2.34892
      H1     2.96409   16.39316   -2.81207
       H     5.62466   19.25203   -7.94430
       O     6.45049   19.80482   -7.95582
      H1     6.99905   19.44503   -8.65522
       H     2.19782   17.75263   -1.02876
       O     2.10709   18.26856   -0.22567
      H1     1.22562   18.70012   -0.30559
       H     4.12862   14.49045    1.76663
       O     3.71169   13.89247    2.34412
      H1     4.29129   13.93581    3.11144
       H    -5.94930   17.58864   -0.85573
       O    -5.97211   18.49817   -0.40757
      H1    -5.53419   19.05346   -1.12663
       H     0.98115   11.87622    2.36730
       O     1.32249   11.02035    2.74764
      H1     0.84919   10.47301    2.08924
       H    -0.54537   13.65168    3.03812
       O    -0.99616   14.00372    3.77235
      H1    -1.76719   14.42642    3.41351
       H     4.03479   11.88313   -1.40288
       O     3.61020   12.15942   -2.23568
      H1     3.08197   11.39682   -2.52826
       H    -2.87626   15.72063   -0.27079
       O    -2.10798   16.10432   -0.75429
      H1    -2.51765   16.13518   -1.66783
       H     4.76226   11.40008    0.66639
       O     5.25062   11.76717   -0.11625
      H1     5.93720   12.30503    0.32029
       H    -3.97313   18.90238   -3.95960
       O    -3.35456   19.57214   -3.70992
      H1    -3.83171   19.95141   -2.95043
       H    -1.60352   18.09735   -6.92865
       O    -0.82975   17.89637   -6.36188
      H1    -0.36399   18.64579   -6.62935
       H     9.71575   14.74175    0.01985
       O     9.54900   15.46769    0.60476
      H1    10.44168   15.58255    0.97560
       H    -5.33653   14.96243   -2.06018
       O    -4.62607   14.71235   -2.72991
      H1    -4.22211   14.06886   -2.11797
       H     1.21252   15.44820   -6.56509
       O     0.61282   15.69850   -7.29971
      H1     0.11843   16.47101   -6.85717
       H    -1.48968   19.06886    0.76953
       O    -1.80862   19.41540    1.56849
      H1    -0.95146   19.46264    2.04155
       H     4.34900    9.75216    2.32672
       O     3.87238   10.43899    1.88911
      H1     2.99537   10.33125    2.38186
       H     2.42168   13.31754   -1.50750
       O     1.77383   13.98150   -1.24902
      H1     1.58725   13.70199   -0.34517
       H     1.99755   14.28520    5.06346
       O     1.19902   14.01554    5.45216
      H1     0.60767   14.06236    4.71192
       H     1.09330   14.73666   -2.88485
       O     0.75563   14.74263   -3.84691
      H1     0.32307   13.86227   -3.81677
       H    -0.41005   12.86675   -8.74470
       O    -0.66518   12.53722   -7.81427
      H1    -0.61707   13.41615   -7.38875
       H     3.43093   15.43133   -5.81130
       O     2.76172   14.75495   -5.69540
      H1     2.33824   15.14829   -4.89060
       H    -1.77094   13.29286   -4.74130
       O    -1.44808   12.63599   -4.15068
      H1    -2.11518   11.90162   -4.33906
       H     3.08585   18.87577    1.25791
       O     3.46155   19.41272    1.96470
      H1     4.34575   19.02501    2.12789
       H     5.96247   17.65949    2.92030
       O     5.69420   18.39414    3.58534
      H1     5.93312   18.06157    4.47139
       H    -1.72776   15.40386   -6.48100
       O    -2.24338   14.64342   -6.16835
      H1    -3.14688   15.02860   -6.17339
       H     5.00979   17.23147   -8.26883
       O     4.50549   18.05161   -8.26990
      H1     3.66257   17.71911   -8.63805
       H    -3.59266   16.04252    2.94198
       O    -3.23329   15.15494    2.83421
      H1    -3.75777   14.99076    1.98014
       H     9.40113   18.18923   -6.54698
       O     8.60459   18.54172   -6.09059
      H1     7.93623   18.64038   -6.79882
       H     5.00819   12.64243   -3.07220
       O     5.90232   12.76085   -3.47596
      H1     5.83333   12.02391   -4.08669
       H     8.52763   14.15342   -1.56520
       O     9.54360   14.14967   -1.66386
      H1     9.75766   14.57173   -2.52431
       H     5.55046   16.21524   -1.81230
       O     6.42514   16.54578   -1.76151
      H1     6.53035   16.93077   -2.66637
       H    -1.46032   17.11694   -4.67198
       O    -1.15628   16.61505   -3.88623
      H1    -0.49858   16.01742   -4.33364
       H     4.48889   18.34858   -0.23521
       O     5.35770   18.29057    0.19806
      H1     5.94257   17.67094   -0.25227
       H     1.79566   17.49368    5.49872
       O     2.74224   17.34421    5.55236
      H1     3.07269   18.27820    5.55692
       H    -2.79999   11.24836    1.39145
       O    -2.91027   11.45120    0.46604
      H1    -2.17424   12.12350    0.36248
       H     7.19687   13.95728   -6.54294
       O     7.55999   14.00965   -5.63232
      H1     6.71816   13.66756   -5.07984
       H     7.40543   15.31942    2.88894
       O     7.14298   15.47581    1.99479
      H1     8.05490   15.53565    1.68225
       H     0.22267   17.14882   -3.23080
       O     0.97316   17.52748   -2.81336
      H1     1.07618   18.36528   -3.24856
       H    -5.16578   15.11178    0.75257
       O    -4.28617   14.63305    0.58848
      H1    -4.59574   13.79598    0.18465
       H     3.76324   15.74602    5.36620
       O     3.91909   14.77553    5.36142
      H1     4.87136   14.74116    5.30085
       H    -0.57692   16.49236    4.85694
       O    -0.26101   17.35746    5.06054
      H1    -0.98814   17.67511    5.62308
       H     4.93417   17.15484   -4.72621
       O     4.36208   16.91949   -5.46217
      H1     4.91491   17.32306   -6.13654
       H     0.61422   14.43120    1.62259
       O     1.04037   13.55548    1.53629
      H1     1.93125   13.68214    1.87301
       H     0.53287   11.02444   -4.39652
       O     1.04310   10.94401   -3.57520
      H1     1.16704    9.95134   -3.52174
       H     2.76813   12.99146   -5.37261
       O     2.81929   12.04753   -5.41476
      H1     2.04106   11.74519   -4.85418
       H     7.03569   17.61986   -5.15727
       O     6.60813   17.74299   -4.27531
      H1     6.35433   18.71149   -4.20438
       H     1.30283   16.82920   -8.53893
       O     1.79085   17.58203   -8.87734
      H1     1.83780   17.36395   -9.78284
       H     8.64025   16.60063   -1.84337
       O     9.32181   17.13976   -2.27155
      H1    10.12244   17.02872   -1.73233
       H     0.53210   16.37948   -0.04419
       O     0.03991   16.30061    0.75281
      H1    -0.86805   16.03611    0.43665
       H     5.05318   11.37236    3.24976
       O     5.65212   12.03331    3.69566
      H1     6.45658   11.46922    3.82777

