180
frame 12 | Written by MDAnalysis XYZWriter (release 2.4.3)
       H    -4.93811    4.11032    5.75433
       O    -5.31954    4.88839    5.31447
      H1    -6.11504    4.97526    5.87218
       H   -13.23369    8.03711   11.70328
       O   -13.97580    8.10379   12.33568
      H1   -14.72978    7.92642   11.78714
       H    -6.40045    8.68745    8.26235
       O    -5.75134    9.33732    7.86759
      H1    -6.16376   10.18167    8.02898
       H    -2.89479    8.48798    6.52500
       O    -2.75946    8.54095    5.56148
      H1    -2.78106    7.54692    5.28290
       H    -5.54852    5.81214    7.14434
       O    -5.36358    5.30267    7.94964
      H1    -4.41281    5.08886    7.85335
       H    -4.15810   13.15718    6.47471
       O    -3.75769   12.34782    6.12652
      H1    -4.51673   11.75192    6.18229
       H   -10.15955   12.18797    3.36543
       O   -10.40587   12.89885    3.94580
      H1    -9.88865   13.57602    3.60328
       H   -12.72056    5.40375    5.54931
       O   -13.23774    4.55793    5.66546
      H1   -13.38657    4.32935    4.69753
       H    -9.75639   10.15444   10.39708
       O    -9.17399    9.95005   11.12134
      H1    -9.92751    9.73283   11.76561
       H    -8.87818    4.72765    9.11044
       O    -8.55863    5.27405    9.84303
      H1    -9.42847    5.51343   10.23717
       H   -12.47249   13.76049    8.66221
       O   -11.60688   13.81997    9.06921
      H1   -11.69666   13.48102    9.96678
       H   -11.73415    3.42296   11.60795
       O   -11.04378    3.43593   10.88758
      H1   -11.58413    3.48252   10.09464
       H    -9.99764    4.00061    7.21495
       O    -9.38177    3.44692    7.71505
      H1    -9.84082    2.63451    7.76446
       H    -8.17816    8.07662   13.99040
       O    -8.85823    8.46600   14.56783
      H1    -8.52654    8.44963   15.48414
       H    -7.41494    2.99307    8.19917
       O    -6.52256    2.70595    8.39394
      H1    -6.03461    3.55078    8.34525
       H   -10.79242   11.25420    8.42107
       O   -11.04002   10.31927    8.61618
      H1   -10.44013    9.83158    7.94976
       H   -12.39363    1.70763    6.10914
       O   -11.79026    2.42352    6.30713
      H1   -12.38738    3.16670    6.10289
       H    -8.95477   11.12142    1.15149
       O    -8.22024   11.27592    0.52920
      H1    -7.40539   10.98432    0.96125
       H    -7.98760    6.03717    5.87397
       O    -7.21372    6.53238    6.03550
      H1    -6.90668    6.66263    5.14705
       H    -4.26513    9.40410    5.50343
       O    -5.20713    9.59331    5.27813
      H1    -5.54659    9.52802    6.19650
       H    -5.31579   10.72856    1.84686
       O    -5.70937   10.13028    1.25372
      H1    -6.28477    9.57342    1.82449
       H   -11.27004   10.22716    2.55158
       O   -10.76136   10.76414    1.90679
      H1   -11.48021   11.17817    1.42129
       H   -15.89681    6.72461    5.65663
       O   -15.53908    7.63908    5.95333
      H1   -16.25773    8.22161    5.64469
       H   -11.75216    7.66832   10.06932
       O   -12.56045    8.23172   10.10745
      H1   -12.23646    9.01298    9.60513
       H    -9.43007    7.80684    3.50606
       O    -9.00562    6.96594    3.50131
      H1    -9.59472    6.44546    2.90709
       H    -8.65518    2.84895    4.10246
       O    -9.49367    3.30428    4.33199
      H1    -9.84857    2.87020    5.11182
       H    -8.48413   10.01428    4.35157
       O    -9.27533    9.83834    4.84522
      H1    -9.58972   10.67283    5.20851
       H   -10.85485    6.39683   11.83561
       O   -10.84941    6.10472   10.88687
      H1   -10.87871    5.14258   11.06477
       H    -6.55000    9.57530    3.87833
       O    -7.17151    9.28920    3.19220
      H1    -7.25868    8.37459    3.42006
       H    -8.41695   11.40557   11.41821
       O    -7.92010   12.10220   11.96512
      H1    -8.16938   12.81731   11.36707
       H    -7.61501    4.16996   12.66250
       O    -7.33610    3.79352   11.82985
      H1    -7.70336    4.45751   11.23239
       H   -13.37676    7.07858    8.69311
       O   -13.71935    6.29754    8.20598
      H1   -13.24797    6.44584    7.35886
       H    -7.29524    5.82766    3.06588
       O    -6.45030    6.29726    3.29220
      H1    -5.91952    5.62349    3.80525
       H   -12.72035   12.28582   12.29968
       O   -12.74093   12.43424   11.34445
      H1   -13.50233   11.86145   11.15214
       H    -6.35635   12.90033    8.11991
       O    -5.88459   12.00657    7.94884
      H1    -5.49925   11.87129    8.87070
       H    -3.33441    9.20071   11.98868
       O    -3.00286    8.55354   11.36388
      H1    -3.27664    9.00002   10.50961
       H    -4.28189   11.97366   10.08214
       O    -4.57399   11.07235   10.30486
      H1    -5.46898   11.22954   10.76508
       H    -9.88599   13.23720    7.10935
       O   -10.13555   12.41417    6.63587
      H1    -9.91527   12.77324    5.75781
       H   -14.86587    4.98266    8.23818
       O   -15.52951    4.25836    8.26562
      H1   -16.26833    4.57631    8.79278
       H   -13.79276   10.59926    1.97599
       O   -13.50489   10.14824    2.73352
      H1   -14.36806    9.79861    2.98061
       H    -2.02041    5.03094    5.04764
       O    -2.65061    5.77061    4.94678
      H1    -3.52470    5.40902    4.98921
       H    -6.51274   13.47442    4.36888
       O    -6.77821   13.39677    3.46596
      H1    -7.32632   14.17191    3.30528
       H    -7.50521    7.20627    7.71977
       O    -7.63815    7.57318    8.62471
      H1    -7.91281    6.69520    9.04488
       H   -14.04677   11.15897    8.16231
       O   -14.35196   10.23743    8.09079
      H1   -14.05374    9.91145    7.20741
       H    -4.49473    7.46479   14.32427
       O    -5.45010    7.69933   14.28879
      H1    -5.72077    7.43498   13.37882
       H    -9.77709    5.05580    0.58154
       O   -10.16829    4.99016    1.44780
      H1   -10.35307    4.08016    1.58719
       H   -12.76140   11.07038    5.68262
       O   -12.83286   10.15458    5.45394
      H1   -13.11264   10.18029    4.50194
       H    -7.36107   15.27562    8.44307
       O    -7.65022   14.35281    8.49270
      H1    -7.76993   14.29473    9.44091
       H    -9.44114   15.53292    6.86859
       O    -9.52518   15.04549    6.03627
      H1   -10.40915   15.24459    5.73888
       H    -9.90283    6.35862    5.20482
       O    -9.99266    5.82513    6.03849
      H1   -10.28673    6.54042    6.63868
       H    -2.42349    9.81785    8.41006
       O    -2.99453    9.00082    8.27673
      H1    -3.88053    9.32185    8.36496
       H   -11.11167    8.30650    1.19361
       O   -11.51682    8.04586    2.04065
      H1   -12.42333    8.30649    1.90800
       H   -12.53645    4.87303    8.41749
       O   -12.21449    4.01785    8.70520
      H1   -12.06119    3.58680    7.86791
       H    -8.03899    8.57074   11.78151
       O    -7.61765    7.76132   12.13615
      H1    -7.47248    7.37576   11.27536
       H   -12.45574    8.19858    6.03006
       O   -12.72595    7.30229    5.83013
      H1   -13.66037    7.42231    5.60907
       H    -9.73289    8.83989    6.37079
       O    -9.85723    8.43348    7.25049
      H1    -8.91394    8.45302    7.43994
       H   -11.85026    8.75003   13.27364
       O   -11.42620    9.49979   12.73538
      H1   -11.90254   10.27860   13.02471
       H   -13.26393   13.69128    6.07147
       O   -12.90429   12.86741    6.38231
      H1   -11.95491   13.08929    6.54838
       H   -14.15363    9.90672   11.33127
       O   -14.74306   10.38457   10.75135
      H1   -14.51336    9.98837    9.84361
       H    -6.74710    2.16809    6.50757
       O    -6.60995    1.56955    5.76337
      H1    -6.45358    2.17483    5.06867

