180
frame 0 | Written by MDAnalysis XYZWriter (release 2.4.3)
       H   -15.11438    0.05648   -9.85588
       O   -14.94498    0.99787   -9.66795
      H1   -14.41904    1.21507  -10.47677
       H   -11.56525    7.28470  -10.89575
       O   -10.90685    6.67190  -11.25871
      H1   -10.47922    6.37141  -10.46579
       H    -8.01830    1.00376   -6.05311
       O    -8.82516    1.59565   -6.10251
      H1    -8.53465    2.11472   -6.86185
       H   -13.37067    3.24689  -10.93823
       O   -13.38411    2.35893  -11.31877
      H1   -14.23231    2.47707  -11.78461
       H    -9.33150    7.77100  -12.40631
       O    -8.74491    7.58893  -13.22483
      H1    -7.95544    8.18700  -13.18488
       H   -13.32260    4.67752   -7.44458
       O   -13.58158    5.61324   -7.36678
      H1   -13.98226    5.86561   -8.21040
       H   -17.59228    1.46973   -8.38412
       O   -18.40767    1.02252   -8.61165
      H1   -18.15285    0.08006   -8.61249
       H    -8.56431    0.98178   -8.65068
       O    -8.69747    0.03901   -8.80357
      H1    -9.07158   -0.22391   -7.92826
       H   -14.60369    2.68756   -6.78685
       O   -13.85300    2.92090   -7.35636
      H1   -14.20907    2.72042   -8.23970
       H   -12.04767    9.45324  -14.85044
       O   -12.86089    9.62710  -14.33936
      H1   -13.42519    8.97877  -14.77971
       H   -15.74914    3.32841  -12.99371
       O   -15.66246    2.42574  -12.67867
      H1   -16.45817    2.27390  -12.10237
       H    -6.63011   -1.69347  -10.86875
       O    -7.57799   -1.43210  -11.04835
      H1    -7.77649   -0.98918  -10.21949
       H   -11.67064   -0.05109  -16.15898
       O   -11.45998   -0.11441  -17.11207
      H1   -12.20177   -0.56957  -17.40965
       H   -12.20045   -4.11743   -8.72764
       O   -12.06172   -3.21411   -9.07545
      H1   -12.30805   -2.63532   -8.31374
       H   -13.04118    9.43038  -12.27799
       O   -12.85518    9.03725  -11.44792
      H1   -12.59897    9.83858  -10.92188
       H   -14.17755    6.94405   -4.22125
       O   -14.02003    5.94736   -4.27615
      H1   -13.85534    5.68487   -5.22959
       H   -16.63197    6.21115  -14.58684
       O   -17.17249    7.02124  -14.80398
      H1   -18.05148    6.65424  -14.83049
       H   -15.58423    5.46105  -13.30408
       O   -15.81816    4.86732  -14.07570
      H1   -15.01141    4.92575  -14.66091
       H   -18.14146    2.85734  -10.85763
       O   -17.86950    1.99456  -11.12006
      H1   -18.11137    1.49951  -10.32044
       H   -16.71432   -0.06985  -12.43541
       O   -16.64957   -0.33983  -13.35763
      H1   -16.81724    0.43942  -13.87341
       H   -10.93351    7.73047  -15.70112
       O   -10.66261    8.61074  -15.93461
      H1   -11.45232    8.92064  -16.33121
       H   -15.99595    7.29630   -9.20299
       O   -16.49280    6.60746   -8.70303
      H1   -17.44124    6.76124   -9.04056
       H   -14.90484   -0.05624   -5.82217
       O   -14.87752    0.02810   -6.79798
      H1   -14.02808   -0.43529   -7.06732
       H    -9.94827    0.24476   -9.92736
       O   -10.59538    0.52047  -10.64013
      H1   -11.40526    0.53262  -10.08210
       H   -15.15764   -1.48476  -10.73486
       O   -16.05776   -1.59634  -10.38925
      H1   -16.51790   -2.02344  -11.10515
       H    -7.11184    4.85257  -12.69931
       O    -6.80443    5.72979  -12.97406
      H1    -7.64778    6.22600  -13.16700
       H   -17.58160    3.77281   -6.39997
       O   -17.79823    4.71220   -6.55538
      H1   -17.61770    4.90045   -7.50121
       H   -11.56979   -1.84025  -14.17298
       O   -11.99904   -1.11517  -13.73451
      H1   -11.34959   -0.42319  -13.62681
       H   -16.20991    8.12905   -7.40418
       O   -16.30747    8.72835   -6.65162
      H1   -17.15326    8.31238   -6.34205
       H   -16.09032   -2.18148   -8.55065
       O   -16.18367   -2.20116   -7.60597
      H1   -15.64477   -1.42299   -7.24748
       H   -19.19277    6.72813  -10.25212
       O   -19.01325    7.34929   -9.57596
      H1   -19.89358    7.69539   -9.24148
       H   -12.80007   -1.41492  -11.72394
       O   -13.32682   -1.54908  -10.90613
      H1   -12.78057   -2.24924  -10.42472
       H   -16.64113    2.39879  -15.88510
       O   -17.11530    2.00905  -15.12890
      H1   -16.56993    2.34017  -14.38646
       H   -13.43407    4.04141   -3.97003
       O   -13.10427    3.15901   -3.83065
      H1   -12.37311    3.17377   -4.54665
       H   -12.93550    3.92649  -18.75851
       O   -13.30889    4.84188  -18.71125
      H1   -13.69385    4.83108  -17.86007
       H   -13.33592    3.91262  -15.33044
       O   -13.96505    4.33282  -15.94078
      H1   -14.46415    3.58199  -16.30089
       H   -13.54424    7.40583  -12.27589
       O   -13.76697    6.70513  -12.90242
      H1   -12.91707    6.58649  -13.36751
       H   -16.59248    2.23100   -5.29736
       O   -17.04693    2.08155   -6.12329
      H1   -17.68419    1.42635   -5.72872
       H    -9.81814   -1.22683   -5.83566
       O   -10.31533   -1.06612   -6.68179
      H1   -10.49108   -0.16724   -6.49440
       H   -12.56270   -2.73645   -6.16899
       O   -12.76666   -2.00076   -6.75082
      H1   -11.88419   -1.55510   -6.63991
       H   -11.58141    6.33029   -6.18208
       O   -10.84783    5.77585   -5.98773
      H1   -10.76453    5.92534   -5.04471
       H    -8.16846    2.18338  -12.72895
       O    -7.24594    2.56816  -12.58536
      H1    -6.64133    1.99646  -13.15826
       H   -10.66195    1.58338  -16.58818
       O   -10.24041    2.17839  -15.95894
      H1    -9.33460    1.83575  -15.95578
       H   -10.98296    3.76225   -8.98275
       O   -10.28470    3.98229   -9.59714
      H1   -10.53245    3.55689  -10.41887
       H   -14.53592   -3.55619  -11.83181
       O   -14.89263   -4.31739  -12.33182
      H1   -15.03637   -4.06498  -13.27504
       H   -11.13947    5.69167  -15.04203
       O   -11.37842    6.39267  -14.43863
      H1   -10.58595    6.64221  -13.93236
       H    -9.33332   -0.40056  -13.80726
       O    -9.63465    0.42472  -13.37327
      H1    -9.48999    0.20177  -12.46650
       H   -19.80565    4.56688  -10.88533
       O   -19.24857    4.32020  -10.10669
      H1   -19.83984    4.64924   -9.47972
       H   -12.73260    5.24810  -10.39272
       O   -13.65255    4.92891  -10.43790
      H1   -13.77758    5.17718  -11.36537
       H   -16.21861    2.38433  -17.68791
       O   -15.36342    2.19441  -17.27904
      H1   -15.17228    1.30596  -17.62195
       H   -11.32898    1.78779   -7.33082
       O   -11.67248    1.25961   -8.06854
      H1   -12.63495    1.16262   -7.88626
       H   -10.73390    9.16679   -7.99302
       O    -9.88855    8.95764   -8.40953
      H1    -9.57923    9.77875   -8.79726
       H    -9.70094    3.59471  -16.83115
       O    -9.35920    4.05399  -17.60452
      H1    -9.95428    4.83302  -17.58537
       H    -7.11051    3.02744   -8.91273
       O    -7.96185    2.68468   -8.67131
      H1    -8.60277    3.18638   -9.21834
       H   -13.13883    0.13381  -13.91759
       O   -13.75021    0.80831  -14.23335
      H1   -14.29196    1.07476  -13.49769
       H   -11.09162    2.82774  -12.42622
       O   -10.25160    2.86670  -11.96517
      H1   -10.41794    2.06950  -11.42495
       H   -12.64718    2.40417  -14.34384
       O   -12.21673    3.20584  -14.12172
      H1   -11.32623    2.98204  -14.52186
       H   -15.96978    9.69190  -10.10406
       O   -15.22908    9.21408   -9.62939
      H1   -14.58857    9.12209  -10.34680
       H   -10.23101    3.32279   -5.47934
       O   -11.15870    3.25209   -5.72728
      H1   -11.29830    4.21510   -5.95123
       H   -14.06635   -2.16856  -15.78896
       O   -14.00478   -1.27489  -16.21127
      H1   -14.00495   -0.71782  -15.42529

