180
frame 5 | Written by MDAnalysis XYZWriter (release 2.4.3)
       H    -2.62864   -9.83828  -14.26269
       O    -2.08385   -9.37278  -13.52515
      H1    -2.60227   -9.50824  -12.68424
       H    -5.65930  -10.16663  -18.73155
       O    -6.16055  -10.39035  -19.55234
      H1    -6.55649  -11.24965  -19.28918
       H    -4.17615  -12.77853  -15.23298
       O    -5.08297  -13.12811  -15.35736
      H1    -5.50221  -12.31674  -15.67985
       H    -5.78188  -13.56152  -13.51867
       O    -5.94725  -13.59449  -12.53666
      H1    -5.96373  -14.60461  -12.43233
       H    -1.77587  -12.03081  -15.82285
       O    -2.52394  -11.63456  -15.29061
      H1    -2.42859  -12.23506  -14.50939
       H    -1.18469  -11.10539  -19.15470
       O    -0.80677  -11.32198  -18.28613
      H1    -0.20218  -11.98394  -18.46224
       H    -8.14948  -11.02453  -13.81022
       O    -7.80595  -11.67928  -14.39396
      H1    -7.22327  -11.22537  -14.97720
       H     6.93656   -8.37237  -18.38380
       O     6.38414   -8.93690  -18.93692
      H1     6.88208   -8.85524  -19.75169
       H    -2.03308  -14.91638  -14.30149
       O    -1.84094  -15.56785  -15.04778
      H1    -1.10584  -16.04022  -14.65457
       H     3.32445  -15.02743  -13.51326
       O     3.17764  -15.67504  -12.86154
      H1     4.04606  -16.08665  -12.81596
       H     3.18381  -13.63282  -12.28017
       O     3.13779  -12.89225  -12.88525
      H1     2.53790  -13.34520  -13.52293
       H    -0.03600  -17.80015  -18.70794
       O    -0.63079  -18.37811  -18.25606
      H1     0.01716  -18.84115  -17.69511
       H     2.46910  -13.60695  -17.50007
       O     3.00746  -13.05176  -16.91229
      H1     3.92223  -13.28754  -17.19744
       H    -0.16986  -13.50322  -16.78182
       O    -0.31397  -13.65287  -15.79387
      H1    -0.68346  -14.52009  -15.72459
       H     0.16085  -15.29103  -12.16797
       O     0.50754  -16.09855  -11.80583
      H1     1.37456  -16.18205  -12.22004
       H     3.80576   -6.81572  -18.21415
       O     4.11005   -7.71968  -18.08319
      H1     4.82111   -7.80779  -18.73620
       H    -5.45039   -6.46556  -19.33859
       O    -5.89604   -7.30895  -19.13141
      H1    -6.79115   -6.96592  -19.01724
       H    -5.93599  -18.47566  -15.74546
       O    -5.77716  -17.69375  -15.20346
      H1    -4.78765  -17.65585  -15.32523
       H    -9.10888  -11.70994  -17.54562
       O    -8.78058  -10.84742  -17.27207
      H1    -8.78146  -10.34891  -18.12005
       H     0.61874  -17.65338  -14.68691
       O    -0.21444  -17.63487  -14.28834
      H1     0.05302  -17.64718  -13.35384
       H    -0.92639   -7.66573  -13.10888
       O    -0.50400   -6.81156  -12.99161
      H1     0.07136   -7.09783  -12.22201
       H     3.01327   -6.97940  -15.21625
       O     3.94661   -7.20020  -15.42508
      H1     3.86005   -7.23251  -16.36119
       H     1.25821  -10.51823  -10.41150
       O     0.74102  -10.00041  -10.99958
      H1     1.42382   -9.44500  -11.40425
       H     2.78949   -7.31480  -12.29989
       O     2.34767   -8.20117  -12.10140
      H1     2.26326   -8.61258  -12.97980
       H    -1.15463   -4.92533  -16.61630
       O    -1.37915   -4.89823  -15.70578
      H1    -1.84284   -4.04830  -15.61026
       H    -1.93291  -10.81761  -10.17120
       O    -2.67962  -10.56643  -10.68849
      H1    -3.25864  -10.07800  -10.04704
       H    -4.75826  -16.40455  -12.89506
       O    -3.83643  -16.06671  -12.75987
      H1    -3.24215  -16.79761  -12.79974
       H    -2.95526   -7.96016  -14.09787
       O    -3.60468   -7.24031  -14.21196
      H1    -4.27236   -7.67333  -14.77401
       H    -3.12398  -14.43435  -12.88977
       O    -2.58757  -13.73001  -13.30406
      H1    -1.83456  -13.79162  -12.70812
       H    -0.73388   -3.81966  -12.01389
       O    -1.44740   -4.32928  -12.47574
      H1    -1.12349   -5.23989  -12.74911
       H     0.81098   -7.88980  -16.94574
       O     0.57508   -8.31857  -16.12594
      H1     0.56892   -7.61350  -15.47064
       H    -4.62948  -13.28444  -11.24967
       O    -4.10756  -13.01598  -10.42745
      H1    -3.52651  -12.26783  -10.69094
       H    -3.21063   -4.68001  -16.51267
       O    -3.74287   -4.39207  -17.29708
      H1    -3.92003   -3.44582  -17.04300
       H     2.94371  -16.11492  -16.97435
       O     3.25836  -15.88491  -17.80876
      H1     4.08165  -15.46781  -17.55587
       H     1.71856   -4.94250  -17.77949
       O     2.61736   -4.74900  -17.42446
      H1     2.88394   -4.18289  -18.14462
       H    -1.86768  -10.14362  -17.14978
       O    -2.11277   -9.31188  -16.77706
      H1    -1.23962   -9.13568  -16.38537
       H    -0.79914   -4.33952  -18.35206
       O    -0.27095   -5.07355  -18.01106
      H1    -0.67383   -5.79907  -18.46377
       H     2.31973  -16.25779  -15.06109
       O     2.33406  -17.12163  -15.54751
      H1     2.98246  -17.61988  -15.11854
       H    -5.13669  -14.54431  -16.61092
       O    -5.06876  -15.39398  -17.02765
      H1    -5.51119  -16.02238  -16.40298
       H     6.02448  -10.46456  -17.97488
       O     5.90775  -11.32643  -17.67446
      H1     5.59214  -11.14228  -16.77777
       H    -5.60817   -9.76603  -16.74308
       O    -5.96222  -10.63631  -16.58149
      H1    -6.85701  -10.49611  -16.89741
       H     0.59010  -14.96480  -18.56030
       O     0.62775  -13.98960  -18.36819
      H1     0.32886  -13.64901  -19.26937
       H     5.69104  -14.97918  -13.98564
       O     5.29273  -14.30226  -14.59895
      H1     5.81827  -13.46707  -14.49213
       H     1.23449  -13.96077  -15.19886
       O     2.06761  -14.44423  -14.83976
      H1     2.62745  -14.03509  -15.49395
       H     1.65293   -9.55131  -15.16479
       O     1.93626   -9.83802  -14.30295
      H1     1.26255  -10.51356  -14.06611
       H    -4.01359   -7.30493  -12.43386
       O    -3.99485   -7.50139  -11.45971
      H1    -3.38285   -6.85565  -11.09554
       H    -0.13378  -12.87524  -12.41650
       O    -0.46878  -13.65332  -11.91290
      H1    -0.69081  -13.26059  -11.02992
       H    -2.04896   -8.12624  -18.23442
       O    -1.84375   -7.56720  -18.97617
      H1    -1.06775   -8.01911  -19.31700
       H    -2.61051  -17.27454  -16.03592
       O    -2.90419  -18.12895  -15.63439
      H1    -2.14830  -18.38666  -15.13219
       H    -2.00309  -15.41251  -18.35887
       O    -2.63512  -15.82657  -18.96346
      H1    -3.44917  -15.52552  -18.57070
       H    -7.25547  -16.59579  -19.11775
       O    -6.35244  -16.20368  -19.20645
      H1    -6.27476  -15.68757  -18.30856
       H    -0.78259  -10.94155  -13.36671
       O     0.00597  -11.43632  -13.14802
      H1     0.31075  -11.01703  -12.33786
       H     5.19644   -7.66532  -14.18991
       O     5.43654   -8.05476  -13.31958
      H1     4.98515   -8.92536  -13.45784
       H     2.96993  -11.14792  -17.95462
       O     2.89520  -10.60792  -18.75209
      H1     3.22394   -9.71044  -18.48868
       H    -3.78532   -8.43726  -16.81005
       O    -4.73229   -8.25075  -16.67727
      H1    -4.92892   -7.74403  -17.51258
       H     5.57278  -14.90750  -16.24941
       O     5.67642  -15.18307  -17.16261
      H1     6.39942  -15.87233  -17.10780
       H     1.24532   -5.26315  -15.58417
       O     1.28686   -6.02154  -14.96338
      H1     0.44242   -6.02597  -14.48250
       H     4.62533  -12.21872  -14.52185
       O     4.73506  -11.37470  -14.96989
      H1     3.87790  -11.01163  -15.01055
       H    -5.73053   -6.42004  -16.07431
       O    -6.58767   -5.96980  -15.86612
      H1    -6.38997   -5.56691  -14.93371
       H     4.73982  -10.62447  -12.92510
       O     5.16880  -10.70742  -12.04462
      H1     5.51603  -11.58427  -12.07929

