180
frame 11 | Written by MDAnalysis XYZWriter (release 2.4.3)
       H     4.94908    5.48900   19.22967
       O     4.43360    4.76191   18.82466
      H1     3.51398    5.07972   18.85396
       H     4.94356   16.87699   18.51094
       O     5.83093   16.52853   18.33431
      H1     5.98159   16.31490   17.40233
       H     6.24825    2.99045   17.07905
       O     6.51892    3.85237   16.90427
      H1     6.32859    4.31279   17.72943
       H     6.57970    9.21328   12.56944
       O     6.86022    9.13293   11.62438
      H1     7.25812    8.27001   11.55850
       H     3.37466    8.09950   14.28948
       O     2.52330    7.76642   14.69781
      H1     2.54398    6.89951   14.33578
       H    13.54104    9.37615   16.71347
       O    13.86557   10.24015   16.92596
      H1    14.83030   10.13097   16.98741
       H    14.33225    6.69670   17.62096
       O    14.69678    6.62683   18.55635
      H1    15.69696    6.76854   18.36900
       H    11.13999   12.77879   11.10453
       O    10.65793   13.38853   10.48463
      H1     9.66666   13.21103   10.61928
       H    11.06188    9.76784   10.29283
       O    10.23037    9.38649   10.61586
      H1     9.62220    9.98054   10.14312
       H    11.94524   13.25710   17.76607
       O    12.80944   13.56911   17.98001
      H1    12.73193   14.51982   18.05196
       H     7.68396   11.10252   15.83263
       O     7.98638   11.81668   16.42713
      H1     7.43973   11.57971   17.19445
       H     3.89619   13.14714   17.25107
       O     4.48787   12.44379   17.08646
      H1     4.84500   12.69200   16.16563
       H    10.77010    5.61942   13.86271
       O    10.00584    6.04034   14.37597
      H1    10.43631    6.60103   15.06825
       H     7.44231   16.04045   19.03659
       O     7.99248   15.98850   19.87673
      H1     8.78054   15.71359   19.43382
       H    15.55301    7.64095   13.69834
       O    16.03196    6.84683   13.89795
      H1    15.48438    6.15669   13.36333
       H    10.71949   18.54377   14.98409
       O    10.39795   17.69877   15.34636
      H1    11.19400   17.18569   15.43202
       H     9.32494   10.65058   19.39229
       O    10.07237   10.07019   19.35116
      H1    10.31007   10.20449   18.40985
       H    14.61328   10.31528   12.86988
       O    15.35988    9.72993   13.14968
      H1    15.91113    9.67126   12.38126
       H    15.62259    4.22743   15.39118
       O    14.79804    3.81994   15.68804
      H1    14.34492    4.61845   16.00567
       H    10.75737    8.26432   16.46986
       O    11.46699    8.49585   15.86712
      H1    11.08952    9.26939   15.29464
       H    14.93488   13.32748   12.07852
       O    14.13070   13.84599   12.29108
      H1    14.19341   14.58298   11.59757
       H     9.62670   10.03831   13.31774
       O    10.11093   10.33541   14.11505
      H1    10.97289   10.60103   13.82234
       H    14.52400    6.97863   15.23261
       O    13.82272    6.66855   15.83021
      H1    13.02716    7.25667   15.60335
       H    12.99423   11.47837   12.98727
       O    13.18703   11.09433   12.06300
      H1    13.72192   11.88051   11.76019
       H    10.51460   14.43838   15.91420
       O    11.16627   14.42435   15.13898
      H1    10.58171   14.62851   14.34606
       H     8.97226    6.28977   12.54667
       O     8.41653    6.58033   11.79391
      H1     9.20519    6.61308   11.15566
       H     4.16857    5.86632   16.37556
       O     4.33362    5.07976   15.84163
      H1     5.06522    4.67867   16.37023
       H    11.85072    8.20733   11.68607
       O    12.78133    8.24593   11.34642
      H1    12.93874    9.18159   11.64423
       H     8.87453   13.71145   12.80038
       O     9.23143   14.48150   13.35428
      H1     8.88722   15.24669   12.87491
       H    12.74185   16.36548   17.46419
       O    12.84593   16.55113   18.40438
      H1    13.72730   16.12426   18.59190
       H    11.86379    3.60304   13.35819
       O    11.72082    4.38736   12.83707
      H1    11.50348    4.05310   11.96386
       H     5.97053    7.02508   16.59175
       O     6.47315    7.40051   17.35105
      H1     6.91728    6.63171   17.62180
       H    17.47319    9.18234   18.04059
       O    16.70256    9.78962   17.93978
      H1    16.84214   10.22288   17.11628
       H     2.84683    6.62570   17.76167
       O     3.50591    7.17244   17.29791
      H1     3.02329    7.20036   16.40584
       H    11.37492   11.46455   16.35819
       O    10.76876   11.55941   17.14494
      H1     9.93748   11.66313   16.69105
       H     5.65802   14.81542   19.62958
       O     5.19903   13.97225   19.79339
      H1     5.08903   13.60493   18.92434
       H     9.59607   17.57075   19.01062
       O     9.69931   18.16194   18.22002
      H1     9.64306   17.56862   17.47115
       H    16.90652   11.85046   18.36224
       O    16.90065   12.76864   18.56063
      H1    17.80653   12.98906   18.65788
       H     9.08370   14.32552   17.28604
       O     9.94749   14.30802   17.76722
      H1     9.76852   14.04706   18.66511
       H     4.60529   10.05781   14.07121
       O     4.62281    9.16817   13.73232
      H1     4.35868    9.32636   12.81932
       H    16.40551   10.97884   14.71292
       O    16.75081   11.25651   15.59636
      H1    16.01156   11.81651   15.89785
       H     9.30969    4.42056   14.82457
       O     9.25490    3.45626   14.97126
      H1     9.50476    3.41934   15.87770
       H     5.60126   16.21126   14.96625
       O     5.60998   15.29354   15.33477
      H1     6.56168   15.09070   15.25253
       H     7.85762   18.49042   18.14999
       O     7.04557   18.77018   17.67198
      H1     6.48948   18.00806   18.01086
       H    13.74170   17.52939   15.60142
       O    13.03264   16.86791   15.67498
      H1    13.30241   16.21524   14.99370
       H     9.73199    3.84931   18.10921
       O     9.45864    3.04685   17.59797
      H1     8.60230    3.35098   17.32056
       H     4.48368   12.33833   14.11048
       O     5.35205   12.71033   14.38836
      H1     5.17784   13.66995   14.45077
       H     1.85802   13.78743   18.03184
       O     2.28368   13.92126   17.19252
      H1     1.92542   14.80893   16.95395
       H    12.10287   12.63679   14.81717
       O    12.46504   11.80588   14.59713
      H1    13.26651   11.94140   15.16048
       H    16.05885   15.29905   19.64684
       O    15.75163   15.27593   18.76475
      H1    16.09420   14.45587   18.39665
       H     2.53682    8.76982   17.51763
       O     2.43342    9.68437   17.91480
      H1     3.35300   10.03210   17.81766
       H    14.27687   13.00778   16.75865
       O    14.72414   12.95428   15.91176
      H1    14.88092   13.89702   15.79273
       H    14.62838   14.77758   13.54027
       O    14.95590   15.32126   14.29515
      H1    15.80567   15.62805   13.98344
       H     6.96264   12.51882   12.16890
       O     7.55827   12.19256   12.82499
      H1     7.16697   12.37590   13.68693
       H     5.79676    4.78622   14.13871
       O     6.33382    4.48898   13.41251
      H1     7.20433    4.20637   13.78148
       H    18.00390    6.64668   17.66227
       O    17.43506    7.09966   18.31843
      H1    18.02914    7.48803   18.98519
       H    12.52414   10.88763   19.78454
       O    13.48185   10.68418   19.80769
      H1    13.56726   10.59048   18.86343
       H     8.30878   14.31581   14.80931
       O     8.01339   14.32440   15.73216
      H1     7.86893   13.36681   15.89601
       H     9.77372    8.48267   18.51012
       O     9.42612    7.72193   18.00745
      H1     9.89878    6.93318   18.36477
       H    10.38655    5.11319   19.90878
       O    10.54117    5.54014   19.07992
      H1    11.17955    6.22122   19.37781

