180
frame 8 | Written by MDAnalysis XYZWriter (release 2.4.3)
       H     3.38256  -11.60638   17.84409
       O     3.71281  -10.71024   18.16273
      H1     3.44393  -10.67833   19.10821
       H    12.23879  -16.45588   15.65805
       O    11.64828  -16.75459   16.33565
      H1    10.94791  -16.13061   16.32075
       H     9.57351  -14.91394   15.13174
       O     9.30109  -15.66151   15.72535
      H1     9.17809  -15.13447   16.54783
       H     3.88905  -17.21238   16.48707
       O     3.70962  -17.84456   15.81786
      H1     3.20683  -17.36308   15.16466
       H     7.40562  -18.27173   12.37252
       O     7.53848  -17.98388   13.28110
      H1     6.72086  -18.27986   13.74959
       H    12.21274  -13.57922   18.44285
       O    11.59650  -13.32197   19.18711
      H1    12.10596  -13.22813   20.06642
       H     2.94821  -18.75416   11.36206
       O     2.14704  -18.54748   11.88104
      H1     1.53869  -19.25682   11.63687
       H    16.10921  -16.88216   13.89811
       O    15.41348  -17.55920   14.11752
      H1    14.71584  -17.21839   13.52145
       H     2.45072  -15.84496   13.72319
       O     2.13107  -16.75270   13.89162
      H1     2.17192  -17.23835   13.03684
       H    16.01068  -13.39396   10.93223
       O    15.37471  -14.10668   11.08550
      H1    15.78550  -14.81717   10.58618
       H    14.89255  -11.15858   18.66084
       O    14.31523  -11.52591   17.96647
      H1    14.82823  -11.19430   17.20448
       H    17.05959  -13.69195   17.00295
       O    17.17900  -13.21005   17.81561
      H1    16.96346  -12.34280   17.51544
       H    13.59691  -12.20853   12.54133
       O    13.72158  -12.51033   13.51014
      H1    13.59922  -13.49173   13.50830
       H     6.41212  -12.20020   12.90612
       O     6.63526  -11.78868   12.13239
      H1     6.31755  -12.42633   11.44822
       H    14.88599  -17.19444   15.98475
       O    14.59147  -16.57708   16.69587
      H1    15.47106  -16.16533   16.87450
       H    10.56753  -16.15611   11.62565
       O    11.52595  -16.05642   11.89442
      H1    11.95476  -15.96972   10.96388
       H    12.64740  -14.55764   14.39605
       O    13.38390  -15.11868   14.20038
      H1    13.85724  -15.00203   15.00934
       H    10.21657  -13.45187   13.29195
       O    10.73635  -14.15232   13.72244
      H1    10.92750  -14.73824   12.96885
       H     4.71884  -18.75072   14.82284
       O     5.55216  -19.28000   14.57716
      H1     6.12658  -18.95698   15.28431
       H     9.36459  -11.25516   17.16035
       O     8.89567  -11.32476   16.31631
      H1     8.09232  -10.87759   16.47768
       H     0.30067  -17.03110   17.47046
       O     0.72993  -16.45675   18.11771
      H1     0.06879  -15.81804   17.93969
       H     3.23274  -13.31548   18.91350
       O     2.83350  -13.26847   18.01266
      H1     1.96695  -12.94703   18.32740
       H     6.63786  -18.23082   17.35524
       O     7.11274  -18.18131   16.50786
      H1     7.47950  -17.26749   16.60316
       H     3.01328  -12.53438   14.18400
       O     3.15050  -12.26423   15.08442
      H1     2.53756  -12.90543   15.51165
       H    16.21169  -16.23391    9.04590
       O    16.31198  -16.44120   10.00741
      H1    15.59429  -17.06430   10.25623
       H    13.42623  -14.58623    9.93536
       O    12.82052  -15.33800    9.68180
      H1    13.47201  -16.11793    9.72474
       H     5.46735  -10.01672   15.55466
       O     6.16597  -10.39923   16.12018
      H1     5.74560  -10.77456   16.90174
       H     7.85644  -19.08371   10.45718
       O     7.59394  -18.14855   10.46262
      H1     6.63869  -18.13837   10.43651
       H    17.90913  -18.91975   11.26010
       O    17.73886  -19.42974   10.46080
      H1    16.88948  -19.81439   10.68941
       H    18.43240  -17.73160   15.25715
       O    17.92304  -17.11405   15.78665
      H1    18.50654  -17.00657   16.53792
       H     1.55743  -15.06174   16.14146
       O     1.15061  -14.35948   15.57210
      H1     0.82586  -14.98081   14.87077
       H     9.31281  -14.79902   10.62756
       O     9.18447  -14.21327   11.36748
      H1     8.38425  -14.51517   11.85843
       H    16.38639  -15.77294   12.36455
       O    17.21251  -15.81788   12.88007
      H1    17.00056  -15.11597   13.53594
       H    15.24059  -11.33088   13.76307
       O    16.12294  -10.95788   13.58049
      H1    16.27741  -11.26899   12.66361
       H    10.13389  -18.09301   15.38228
       O     9.61344  -18.79887   14.99328
      H1     8.99633  -18.28282   14.42134
       H     3.65991  -14.09550   11.65794
       O     3.15460  -14.81886   12.03364
      H1     2.76263  -15.24789   11.20063
       H     0.17664  -18.99353   16.42625
       O    -0.54344  -18.42111   16.24104
      H1    -1.29240  -18.73456   16.86405
       H     9.27347  -11.63308   14.57473
       O     9.54549  -11.52974   13.61699
      H1     8.71383  -11.73175   13.17745
       H    12.59870  -17.63848    7.09848
       O    12.26025  -18.55153    7.07047
      H1    12.07841  -18.68434    8.03630
       H    11.83418  -19.04171   10.76789
       O    11.22150  -18.92451   10.02531
      H1    10.96916  -18.03134   10.20385
       H     5.84848  -12.73558   18.98466
       O     6.45036  -12.32437   18.31529
      H1     7.29813  -12.73833   18.45059
       H    13.01841  -17.97710   17.18468
       O    13.13133  -18.91996   17.30730
      H1    14.06666  -19.01141   17.52380
       H    12.44909   -8.94482   17.32175
       O    12.24066   -9.51375   18.10327
      H1    12.89733  -10.20818   17.96961
       H    10.16140  -12.77094   10.23519
       O    10.64033  -12.28206    9.56596
      H1    10.42675  -12.78422    8.78720
       H    17.43416  -13.49840   14.93273
       O    16.55084  -13.92017   14.90932
      H1    15.97514  -13.34875   14.34310
       H     4.93952  -15.07323   17.12752
       O     4.50384  -15.56523   17.75905
      H1     3.83076  -14.96963   18.01053
       H    10.18259  -10.56914   18.57199
       O     9.85124  -11.44400   18.72215
      H1    10.64130  -11.99897   18.76138
       H     4.91594  -19.75998   11.60913
       O     5.11598  -19.01010   11.02761
      H1     5.24956  -18.24881   11.59556
       H    12.59733  -11.23373   14.18512
       O    11.98875  -10.48082   14.11093
      H1    11.05736  -10.87515   13.96999
       H     8.71062  -17.05015    9.86428
       O     9.53307  -16.53209    9.65981
      H1     9.65566  -16.61080    8.67316
       H     5.81766  -16.24967   12.70801
       O     5.08250  -16.64775   12.25903
      H1     4.43728  -15.95357   12.21821
       H     9.02057  -15.12366   19.08277
       O     8.90381  -14.60884   18.19819
      H1     9.76567  -14.10234   18.36782
       H     4.97708  -12.73322   14.79073
       O     5.87254  -12.48897   14.57577
      H1     5.95384  -11.76985   15.21735
       H     6.85849  -15.96058    8.00958
       O     6.87505  -15.09951    8.50561
      H1     7.70976  -15.21499    9.00393
       H    13.49298  -14.79552   17.26394
       O    13.10098  -13.88512   17.10341
      H1    13.75345  -13.24292   17.54488
       H     6.83658  -14.30535   17.21168
       O     6.50488  -14.39851   16.29186
      H1     6.53402  -13.48138   15.96557
       H    10.80395  -18.71959   17.62242
       O     9.86744  -18.86820   17.86663
      H1     9.36484  -18.64994   17.05276
       H    14.48239  -18.73399    9.28665
       O    14.20028  -17.94298    9.86510
      H1    13.80146  -18.40520   10.61158
       H     7.18582  -14.95854   14.23249
       O     7.26009  -15.31419   13.33440
      H1     7.72647  -16.18244   13.57787
       H    12.23541  -17.67265   12.52858
       O    12.91969  -18.36356   12.35007
      H1    12.54217  -19.15628   12.71817

