180
frame 9 | Written by MDAnalysis XYZWriter (release 2.4.3)
       H    -2.90889    4.30209    5.77513
       O    -3.15706    4.79678    5.01154
      H1    -3.83298    5.34741    5.40458
       H    -0.66878   -0.01816    6.63111
       O    -0.61102    0.83313    6.15551
      H1    -0.88618    0.50877    5.29627
       H    -6.12709    3.72310   10.79103
       O    -6.22694    4.01733   11.71549
      H1    -6.83071    3.34575   12.09254
       H    -1.07314    3.51393    6.00915
       O    -1.82117    3.03836    6.50186
      H1    -1.59254    2.08874    6.35098
       H    -5.24566   -0.05026    9.32913
       O    -4.93467   -0.95374    9.15371
      H1    -4.88186   -0.84829    8.17890
       H    -3.97786    8.66461    1.18483
       O    -3.65495    8.08658    0.39968
      H1    -3.28156    7.33159    0.93961
       H   -13.21871    2.97663    3.29212
       O   -14.16405    3.16082    3.21455
      H1   -14.18497    4.17001    3.23615
       H   -10.62617   -2.37947    8.36845
       O   -10.86102   -2.07465    7.45183
      H1   -11.19462   -2.91434    7.03098
       H    -6.85534    8.94390    7.34909
       O    -6.24623    9.60458    7.00738
      H1    -6.53636   10.30809    7.59668
       H    -1.73785    8.51478    6.52074
       O    -2.18815    8.71970    5.70060
      H1    -1.84942    7.93849    5.20948
       H    -4.88713    5.88423   10.17136
       O    -4.67600    5.45411    9.32412
      H1    -4.34295    4.61489    9.70186
       H    -6.24513   -2.29181    9.70359
       O    -6.91586   -2.69065   10.28523
      H1    -7.33529   -1.86235   10.69700
       H   -12.84991    3.90046    5.96649
       O   -13.62903    3.39123    5.95783
      H1   -13.88643    3.38789    5.02458
       H    -2.95209    2.46480    9.27261
       O    -3.84170    2.63704    9.74504
      H1    -3.54742    2.49304   10.66876
       H    -9.05263    5.15486    9.22851
       O    -8.73469    5.81608    9.85197
      H1    -9.39213    5.75974   10.55978
       H    -9.70780    4.08894    7.35022
       O    -9.11953    3.94711    8.13161
      H1    -9.05090    2.94550    8.06171
       H    -5.13843   -1.63395    3.42065
       O    -4.90250   -1.61368    2.48513
      H1    -5.76010   -1.94507    2.12976
       H    -7.43053    4.33770    7.43913
       O    -6.57112    4.25494    6.94393
      H1    -5.97756    4.45915    7.64734
       H   -12.62535    1.15204    7.28600
       O   -12.07678    1.91518    7.57685
      H1   -12.27800    2.49778    6.78283
       H    -5.95862    5.83903   -0.12013
       O    -5.09183    5.72551   -0.54236
      H1    -4.54387    6.59825   -0.53507
       H   -11.14335   -0.83561    3.66953
       O   -10.42093   -0.97432    4.32427
      H1   -10.54889   -1.92766    4.56962
       H    -6.16326    5.77248    4.93787
       O    -5.50203    6.24614    5.42583
      H1    -5.31840    7.04854    4.82845
       H    -3.75124    8.72195    4.94023
       O    -4.67096    8.59851    4.74809
      H1    -5.06176    8.52615    5.62345
       H    -3.58863   10.15443    2.51411
       O    -4.46883    9.84396    2.24193
      H1    -4.88914    9.51177    3.04377
       H   -12.18845    0.79696    0.71288
       O   -11.73815    0.33186    1.41387
      H1   -10.92164    0.08470    0.95101
       H   -10.84465    5.56753    3.41443
       O   -10.18500    4.96330    3.64888
      H1   -10.28600    4.31876    2.91695
       H    -8.05891    2.06203    4.88067
       O    -8.95737    1.68449    4.75490
      H1    -8.93585    0.98821    5.47836
       H    -8.56712    0.69905    3.05019
       O    -8.10806    0.34988    2.29807
      H1    -8.79134   -0.20473    1.84218
       H    -1.51878    5.59037    1.37969
       O    -2.36053    5.78636    1.80282
      H1    -2.04167    6.05642    2.70227
       H    -8.82859    9.69329    4.60875
       O    -9.77968    9.68402    4.36519
      H1   -10.18332   10.40170    4.87268
       H    -8.65777    5.81182    3.37652
       O    -7.79581    6.17078    3.08067
      H1    -7.18802    5.38967    3.04380
       H    -2.01835    0.89064    3.20401
       O    -1.05792    0.73660    3.27720
      H1    -1.01223   -0.21281    3.14191
       H    -0.95584    1.15187    8.90754
       O    -1.48133    1.93323    8.86313
      H1    -1.38173    2.38939    7.96130
       H    -3.25667   -1.27401    5.36359
       O    -4.01123   -0.83762    5.77243
      H1    -3.75340    0.07271    5.55456
       H   -10.37763    1.22784    8.06439
       O    -9.46780    1.08133    8.35581
      H1    -9.42932    1.17970    9.30830
       H    -0.41618    6.54749    4.42831
       O    -1.35781    6.71021    4.28610
      H1    -1.86127    5.95407    4.59016
       H    -6.66619    6.56729    7.08384
       O    -7.40416    7.05216    7.45716
      H1    -7.71390    6.59995    8.24058
       H   -11.86244    1.46919    2.89800
       O   -11.72029    1.86764    3.77120
      H1   -10.81475    1.65056    4.11364
       H    -0.06367    3.56320    3.86644
       O    -0.06819    4.01211    4.73997
      H1     0.84075    4.27236    4.78918
       H    -5.95839    2.48612   -2.29766
       O    -6.65353    1.81818   -2.03940
      H1    -6.74606    2.02453   -1.09886
       H    -9.22049    3.91505    0.37679
       O    -9.86434    3.69658    1.01191
      H1   -10.62625    3.47607    0.51350
       H    -3.06339    3.63911    0.14470
       O    -2.73286    3.19651    0.95616
      H1    -2.56064    3.95482    1.54455
       H    -3.65689    2.61019    4.25944
       O    -3.80895    1.66839    3.92646
      H1    -4.80576    1.67725    3.92752
       H   -14.20400    0.09553    4.92130
       O   -13.28072   -0.07148    4.74440
      H1   -12.93689    0.86008    4.65329
       H    -7.67993   -3.02234    5.47405
       O    -7.66332   -3.27835    6.39486
      H1    -7.96986   -2.39773    6.71463
       H   -10.79268    4.53182    5.32426
       O   -11.00222    4.53284    6.27176
      H1   -11.25480    5.46302    6.38553
       H    -9.16546   -0.45396   11.07617
       O    -8.20245   -0.39114   10.97929
      H1    -8.00913    0.28583   11.65205
       H    -7.50730    6.13971    1.28533
       O    -7.61613    6.25857    0.32172
      H1    -7.70004    7.19871    0.26181
       H   -10.97813    7.74733    3.10908
       O   -11.76452    7.13539    3.10276
      H1   -12.18511    7.47218    3.94112
       H   -13.25350    3.76183    8.89706
       O   -12.45587    3.86579    9.43501
      H1   -11.82595    3.26823    8.90601
       H    -6.68845    8.34050   11.05383
       O    -7.35958    7.79691   11.46968
      H1    -7.72052    7.24451   10.76336
       H    -7.40962   -1.21431    3.41722
       O    -7.05232   -1.76058    4.15520
      H1    -6.97382   -1.09815    4.83611
       H    -3.02913    6.33128    9.01198
       O    -2.11229    6.61326    9.11256
      H1    -2.12085    7.52449    9.01471
       H   -10.03053    8.24761    5.54908
       O   -10.01554    7.67325    6.29889
      H1    -9.05786    7.47241    6.52202
       H    -5.58681    1.77291    0.75578
       O    -6.40800    2.28071    0.64663
      H1    -7.06617    1.71819    1.11140
       H    -4.17729   -0.00584    1.47332
       O    -4.32231    0.65117    0.74459
      H1    -3.84552    1.41318    0.99758
       H    -8.52932   -0.13123    7.37660
       O    -8.50878   -0.72847    6.63726
      H1    -9.38158   -1.11962    6.70999
       H    -5.35255    2.31440    9.27186
       O    -6.29599    2.10851    9.03021
      H1    -6.34548    2.61984    8.24203
       H    -6.32399    3.52409    2.03587
       O    -5.90435    4.19815    2.62963
      H1    -4.97553    4.29893    2.32220
       H    -6.56752    3.13685    5.35363
       O    -6.40736    2.56710    4.62710
      H1    -6.19835    3.20101    3.91798

