180
frame 11 | Written by MDAnalysis XYZWriter (release 2.4.3)
       H   -18.48031   -1.55792    8.63263
       O   -18.87502   -1.77511    7.76246
      H1   -18.89180   -0.86535    7.33925
       H   -17.80980    2.50992    9.68850
       O   -18.52940    2.43046    9.08347
      H1   -18.93255    3.27458    9.15756
       H   -16.18448    1.26359   10.94270
       O   -16.31893    2.17913   10.72594
      H1   -15.42515    2.54508   10.82103
       H   -13.32384   -2.92301   16.03213
       O   -13.94149   -2.57203   15.33014
      H1   -13.30096   -2.01090   14.81447
       H   -10.11771   -2.35958    7.05437
       O   -10.70436   -3.08153    7.32252
      H1   -10.95743   -2.62523    8.09656
       H   -17.97349    0.66999   14.17838
       O   -17.50074    0.55165   15.06130
      H1   -16.57811    0.80047   14.86103
       H   -12.05808    4.30922   14.41599
       O   -11.08718    4.44288   14.25098
      H1   -11.04427    5.39929   14.42356
       H    -6.04130   -0.47199   10.55592
       O    -6.64725   -1.19986   10.80467
      H1    -7.44311   -0.65504   10.91271
       H   -12.21797    5.32593    5.33184
       O   -12.98106    4.77043    5.51073
      H1   -13.38505    4.65935    4.59737
       H   -12.47122   -1.07530    9.84608
       O   -12.68706   -0.11791    9.79855
      H1   -13.62726   -0.20492    9.68500
       H   -13.92439    3.72412   15.48981
       O   -14.43007    4.45354   15.17056
      H1   -14.37781    5.13992   15.85738
       H   -15.17927   -4.93149    4.70395
       O   -15.34488   -4.47452    5.52617
      H1   -15.51954   -5.24670    6.12829
       H    -8.96062    4.84921    8.80058
       O    -8.64089    5.55727    9.40526
      H1    -9.39762    5.63010   10.03327
       H   -11.32033    2.57066   11.35310
       O   -10.85241    3.28617   10.90761
      H1   -11.31530    3.37232   10.07513
       H    -9.25337    4.13174    7.06252
       O    -8.55937    3.68432    7.53821
      H1    -9.08760    2.93105    7.81526
       H   -12.44492    1.76726    6.50272
       O   -11.74657    2.27320    6.00435
      H1   -12.23471    3.01634    5.70003
       H   -11.49006    0.36772    4.95944
       O   -11.71682   -0.43670    4.50192
      H1   -12.32900   -0.21338    3.83303
       H   -11.19092   -0.14694   14.08633
       O   -11.15369   -1.06636   14.43995
      H1   -10.56157   -1.48804   13.83409
       H   -18.35368    1.66871   12.27882
       O   -18.83538    0.86881   12.56722
      H1   -18.85489    0.36418   11.81341
       H   -12.68629   -6.45230   10.44828
       O   -12.28807   -7.20461   10.00894
      H1   -13.10785   -7.68424    9.90643
       H    -8.39451   -2.22273   12.55859
       O    -9.29313   -2.49531   12.81326
      H1    -9.06927   -3.28496   13.31760
       H   -16.98092    3.65862   12.55400
       O   -17.85148    3.44595   12.89497
      H1   -17.91295    3.79683   13.83362
       H   -11.13764    6.50423   12.20831
       O   -10.82492    6.01527   11.40999
      H1   -10.97793    5.09473   11.77274
       H   -17.56470   -5.17217   14.25975
       O   -16.88270   -4.65066   13.81036
      H1   -16.92314   -3.83118   14.30295
       H   -17.12555   -1.35432   15.08334
       O   -16.66879   -2.18439   14.96125
      H1   -15.94024   -2.12651   15.57545
       H   -12.86311   -0.41648    6.06329
       O   -13.39293   -0.02694    6.78280
      H1   -13.51439   -0.77768    7.39179
       H    -8.10213    3.40807   12.95448
       O    -7.71586    3.05387   12.14199
      H1    -8.49978    3.18531   11.53382
       H   -13.09497    7.24236    8.35783
       O   -13.44786    6.48817    7.86555
      H1   -13.10088    6.75371    6.95122
       H   -15.61880   -7.64353    6.97009
       O   -15.95020   -6.72184    6.89240
      H1   -15.66773   -6.30382    7.69638
       H   -13.51322    3.55683   10.17884
       O   -13.97123    3.35175   11.02865
      H1   -14.47667    4.16910   11.15050
       H   -10.31914   -0.75435   17.12021
       O   -10.28593   -0.02743   16.53606
      H1   -10.65535   -0.42961   15.69754
       H   -14.29545    4.20996    7.33768
       O   -15.03685    3.85642    7.85978
      H1   -15.44195    4.69265    8.19733
       H   -10.90944    1.19894    8.53698
       O    -9.93685    1.34134    8.59295
      H1    -9.81142    1.07901    9.53171
       H    -7.83488   -4.00701   10.36799
       O    -8.35564   -3.79795    9.57414
      H1    -8.90221   -4.61055    9.52678
       H   -18.11055    2.27563    3.91167
       O   -17.24211    1.80361    3.85598
      H1   -17.35588    0.99395    4.38731
       H   -14.84436    6.19480   12.75797
       O   -15.33471    5.33815   12.82717
      H1   -15.09844    5.05108   13.73594
       H   -16.83181    6.40861    7.77137
       O   -16.27865    6.18573    8.55297
      H1   -15.41425    6.52906    8.21867
       H   -11.94726   -3.81090    6.17016
       O   -12.48594   -4.46375    5.85875
      H1   -13.38242   -4.14947    6.04208
       H   -10.18130   -5.20555    7.96046
       O   -10.12520   -5.57233    8.87874
      H1   -10.87644   -6.19784    8.90495
       H   -14.90834    0.11176    4.36290
       O   -14.66842    0.86909    3.76831
      H1   -15.46455    1.38154    3.65649
       H    -7.79485   -2.73216    6.25718
       O    -7.35986   -3.41491    6.80656
      H1    -7.79162   -3.34155    7.65948
       H   -15.98773   -3.25253   11.62728
       O   -16.42100   -3.65767   10.88877
      H1   -16.90728   -4.37583   11.26564
       H   -15.38723    1.93758    8.15708
       O   -15.72119    1.07951    7.77172
      H1   -15.03667    0.87581    7.11771
       H   -10.12449   -3.13421    9.88038
       O   -10.79522   -2.58564   10.23644
      H1   -10.44007   -2.46192   11.09432
       H   -18.59479   -1.64212   10.88432
       O   -18.33485   -0.92265   10.27354
      H1   -17.36144   -0.85860   10.32222
       H   -18.46486    1.37677    7.50723
       O   -18.96016    0.87544    6.81003
      H1   -19.82891    1.15539    7.07228
       H   -15.46524   -1.65338   10.18430
       O   -15.54926   -0.64380   10.08077
      H1   -15.80401   -0.59063    9.14019
       H    -9.92949   -0.43761   10.68846
       O    -9.23029    0.21433   10.82541
      H1    -9.52641    0.60299   11.65816
       H   -12.40290    4.74918    8.45224
       O   -12.16580    3.83459    8.64327
      H1   -11.84854    3.55073    7.76906
       H   -14.50663   -2.44901   12.92246
       O   -15.23486   -1.88208   12.66589
      H1   -15.69176   -1.73533   13.52528
       H   -12.82479    0.98243   11.86592
       O   -12.11116    1.39817   12.37777
      H1   -12.60912    2.21022   12.60672
       H   -18.16352   -3.44782    4.79553
       O   -17.49322   -3.02259    4.27651
      H1   -16.70222   -3.34337    4.68822
       H   -12.79521   -4.25076   11.52485
       O   -12.94914   -4.67556   10.65370
      H1   -12.06074   -4.52434   10.21259
       H   -15.34906   -3.21980    7.26863
       O   -15.36116   -2.24329    7.46233
      H1   -15.67008   -1.88730    6.62970
       H    -9.48412   -0.11621    7.60625
       O    -9.09211   -0.92096    7.18900
      H1    -8.70698   -0.55804    6.40113
       H   -14.02502   -4.75505    9.40724
       O   -14.75381   -4.78987    8.72115
      H1   -15.48392   -4.37273    9.18722
       H   -13.27830   -3.68666   14.21518
       O   -13.24026   -3.99320   13.30288
      H1   -13.47585   -4.93048   13.50370
       H   -12.95065    1.68018   16.99657
       O   -12.77458    2.23445   16.22153
      H1   -11.87692    2.61232   16.45404
       H   -16.34986    3.52413    6.54744
       O   -17.13050    3.43747    6.01905
      H1   -16.85667    2.84125    5.34682
       H   -17.39232   -0.96172    5.39536
       O   -16.61454   -0.47761    5.53362
      H1   -16.85190    0.18233    6.25701

