180
frame 6 | Written by MDAnalysis XYZWriter (release 2.4.3)
       H    -1.51031   15.60594   -2.24885
       O    -1.67723   16.31066   -1.61210
      H1    -0.98066   16.25121   -0.96028
       H     9.08598   15.12544   -5.09296
       O     9.93177   15.42402   -4.85138
      H1     9.71310   15.88544   -4.07376
       H     6.77436   16.58229    3.42022
       O     6.70177   15.63546    3.35633
      H1     7.59166   15.38893    3.56431
       H    12.58335   14.87165    0.39243
       O    12.28858   15.23546    1.20884
      H1    11.54993   15.92051    1.01826
       H     6.12418   12.13281   -2.11543
       O     6.97918   11.77218   -2.11101
      H1     7.07237   11.69874   -3.02401
       H    10.65465   17.98364    1.05502
       O    10.31017   17.09146    1.21957
      H1     9.47503   17.15918    1.72429
       H     8.61537   12.21961    1.83786
       O     8.00473   11.67050    1.38997
      H1     7.35829   12.32334    1.20611
       H     1.84506   15.41638   -2.16650
       O     2.13496   16.27340   -1.81641
      H1     1.54010   16.83718   -2.28950
       H     2.44882   19.06667   -4.48981
       O     1.52467   19.31688   -4.64625
      H1     1.28224   18.57081   -5.18680
       H     0.19318   17.72228   -0.52345
       O    -0.02137   17.38453    0.38060
      H1    -0.80397   17.90585    0.56932
       H     2.88950   14.44177    1.38514
       O     2.58719   13.64488    1.84429
      H1     3.06817   13.75371    2.66596
       H     6.33267   18.79197    3.66040
       O     5.36488   18.68048    3.80272
      H1     5.05430   18.76555    2.90615
       H    -0.34862   13.36031    3.05228
       O    -0.03861   12.85534    3.80542
      H1    -0.85863   12.37913    4.15887
       H     4.03040   11.55249   -1.58701
       O     4.02547   11.76370   -2.54623
      H1     3.47948   11.03138   -2.88939
       H    -2.99460   18.33905    1.26037
       O    -2.09691   18.70489    1.24948
      H1    -2.17125   19.48289    0.64730
       H    13.27776   19.83493    0.60080
       O    13.08118   18.91302    0.40190
      H1    13.75151   18.35146    0.80934
       H    11.74352   17.36215    5.28193
       O    12.12639   18.29839    5.20175
      H1    11.73829   18.68404    5.99088
       H    -2.21889   17.28321   -4.30208
       O    -1.81059   18.13733   -4.35979
      H1    -1.29877   18.08898   -5.20367
       H     9.35900   14.61737   -0.36002
       O     8.95379   15.47927   -0.30605
      H1     9.64269   16.05554    0.15697
       H     4.37793   11.04135    1.21773
       O     3.95747   11.56631    0.50272
      H1     3.58052   12.32534    0.93660
       H     2.78410   12.95559   -1.98081
       O     1.98286   13.33439   -1.58577
      H1     1.56864   12.45373   -1.32665
       H    -0.77569   15.97340    4.70617
       O    -0.50091   15.36625    5.43655
      H1    -0.27190   14.59377    4.94422
       H    -0.03580   13.75149   -2.48365
       O    -0.43150   14.30004   -3.19125
      H1    -1.01188   13.66734   -3.66401
       H     8.24387   19.54586   -2.71603
       O     8.33456   19.01129   -1.85295
      H1     8.84205   18.23207   -2.26371
       H     8.73971   13.90632    4.23136
       O     9.46787   13.96247    3.57646
      H1    10.15024   14.46410    4.02497
       H     2.38321   14.76231   -4.60500
       O     1.86180   13.96951   -4.79122
      H1     1.12413   14.10045   -4.19233
       H     1.37880   18.17672    1.34398
       O     1.89087   18.58426    2.07460
      H1     2.84379   18.67462    1.58000
       H     4.38947   17.39919    1.20630
       O     4.53797   18.39716    1.17367
      H1     5.06506   18.52885    0.35449
       H     4.69842   17.70836   -6.46684
       O     3.69966   17.67428   -6.35381
      H1     3.42779   17.01881   -7.02312
       H     5.35719   11.61945   -4.22003
       O     6.19008   11.41239   -4.66011
      H1     5.96617   11.57122   -5.60764
       H     8.61228   18.56010    3.07848
       O     7.84223   18.18875    2.63042
      H1     7.61384   18.91697    2.08311
       H     9.12776   12.51807   -0.01715
       O     9.80153   12.74481   -0.63886
      H1     9.49801   12.35077   -1.44170
       H     7.84490   17.11413    6.61610
       O     8.26018   16.40658    6.04252
      H1     7.48441   15.81782    5.99986
       H     6.09263   14.11605    6.13116
       O     5.57091   14.76216    6.61027
      H1     4.97886   14.87884    5.86667
       H     5.43739   14.98072   -2.85962
       O     6.36373   15.07948   -2.52080
      H1     6.54296   14.12803   -2.28884
       H     6.18656   17.58094    8.01726
       O     6.84653   18.12074    7.55017
      H1     7.60403   18.00413    8.10554
       H     9.98327   15.65258    5.66297
       O    10.84408   15.80182    5.24299
      H1    11.49384   15.23557    5.68298
       H     7.87616   12.81269    5.72601
       O     7.57303   13.51266    5.14716
      H1     7.10197   12.97541    4.45997
       H     3.48266   15.97047   -0.17681
       O     3.97350   15.78965    0.59796
      H1     4.87558   15.70843    0.23352
       H    10.56146   12.84612    2.68970
       O    11.02241   12.73443    1.82936
      H1    11.27366   13.66844    1.75267
       H     9.33776   17.77704   -6.97521
       O    10.19663   17.49751   -6.65220
      H1    10.01523   16.91948   -5.86487
       H     9.40628   19.03325   -4.94974
       O     8.70146   19.68517   -4.89168
      H1     7.94643   19.08298   -5.13681
       H     1.98063   17.29947    6.08548
       O     2.82261   16.99646    5.79970
      H1     3.26173   17.71161    5.29224
       H     2.42323   19.38105    8.03631
       O     1.53212   19.12805    8.39339
      H1     1.02729   19.78789    7.87893
       H    -2.27397   11.99004    0.63685
       O    -1.85309   12.57289   -0.02726
      H1    -1.19066   12.99054    0.58051
       H     7.86499   13.24811   -6.67382
       O     7.70100   13.74196   -5.79276
      H1     7.02533   13.23074   -5.31788
       H     6.55018   14.58368    1.64561
       O     6.97266   14.12245    0.86267
      H1     7.65538   14.82693    0.67341
       H    -0.71438   18.34187   -2.86941
       O     0.06629   18.63181   -2.31166
      H1     0.63939   18.86776   -3.10268
       H     3.50082   15.54737    4.81047
       O     3.89377   14.76561    4.40227
      H1     4.77271   15.11799    4.11058
       H     9.50394   19.07774    5.69323
       O     9.77311   19.10047    6.64510
      H1     9.71763   19.97838    6.93094
       H     0.74809   18.27827    4.17534
       O     0.53523   18.86884    4.87860
      H1    -0.11813   18.47232    5.41202
       H     3.39473   16.25160   -3.31627
       O     3.79018   15.91504   -4.15068
      H1     3.88328   16.78072   -4.51656
       H    13.38921   16.85397   -2.41027
       O    12.63310   17.30441   -1.93277
      H1    13.17259   17.97878   -1.44990
       H    -0.11655   14.95830    1.91702
       O    -0.26946   14.16328    1.37311
      H1     0.64006   13.93834    1.23083
       H     6.33046   19.19551   -5.97404
       O     6.20134   18.30321   -5.52599
      H1     5.47115   18.48683   -4.85872
       H     9.37783   16.34262   -1.84512
       O     9.78000   16.77317   -2.64694
      H1    10.68922   16.78971   -2.29637
       H    -0.71992   16.92106    2.08620
       O    -0.78255   16.54671    2.93982
      H1    -1.76776   16.64944    3.15406
       H     5.97714   11.63009    3.05888
       O     5.77496   12.57753    3.26032
      H1     4.89056   12.46181    3.68955
       H     6.95921   18.00834   -1.47635
       O     6.35757   17.37390   -1.03901
      H1     6.47947   16.63635   -1.64311
       H    10.86532   18.91562    4.31096
       O    10.12417   19.14234    3.77732
      H1    10.27912   20.11315    3.87111

