180
frame 3 | Written by MDAnalysis XYZWriter (release 2.4.3)
       H   -13.25858    1.06491   -9.83493
       O   -12.65025    1.83284   -9.60932
      H1   -12.79773    2.48112  -10.34023
       H   -16.04268    6.05313   -4.34266
       O   -16.67228    5.99561   -3.59301
      H1   -16.13710    5.65778   -2.83807
       H   -11.71408    9.13911  -10.54319
       O   -11.04693    8.44079  -10.46579
      H1   -10.49031    8.71482   -9.72656
       H   -12.22653    4.38980  -11.10252
       O   -12.46008    3.64252  -11.66717
      H1   -13.33723    3.86987  -12.00470
       H   -10.25546    7.37487  -12.56000
       O    -9.93279    6.42703  -12.49082
      H1   -10.22507    6.14382  -13.35278
       H   -12.77106    5.07489   -8.55210
       O   -13.40653    5.29355   -7.84229
      H1   -13.78146    4.37663   -7.76916
       H   -17.06827    1.15390   -7.64700
       O   -17.97794    0.86206   -7.78492
      H1   -18.02410   -0.09223   -7.62585
       H    -7.98529    0.64066   -8.94778
       O    -8.55428   -0.13552   -8.99361
      H1    -8.91954   -0.43312   -8.12272
       H   -13.63038    1.13016   -6.76747
       O   -13.23218    1.94753   -7.00606
      H1   -12.99249    1.92793   -7.94415
       H   -16.70567    3.04345  -12.37826
       O   -16.67440    2.10134  -12.27453
      H1   -17.26795    2.03907  -11.49979
       H   -12.86908    9.67526   -1.74189
       O   -13.01080    8.73186   -1.80057
      H1   -13.43980    8.65030   -2.65881
       H   -12.21100    1.96604   -3.69457
       O   -12.14341    1.33977   -2.93325
      H1   -11.64658    0.56566   -3.32048
       H   -14.56537    1.52598   -1.41436
       O   -15.18143    2.24085   -1.60946
      H1   -14.79479    2.89358   -1.00639
       H   -13.33549   -3.29836   -8.99262
       O   -12.71694   -2.54114   -8.91120
      H1   -12.68766   -2.37440   -7.92665
       H   -12.50992   10.80113  -12.21953
       O   -12.85095   10.49304  -11.36979
      H1   -13.11581   11.34122  -11.00778
       H   -13.23823    6.74245   -5.09198
       O   -13.21919    5.77851   -5.06828
      H1   -13.28658    5.71623   -6.08133
       H   -16.59320    5.81892  -14.04677
       O   -17.29980    6.27635  -14.48113
      H1   -18.09887    5.95303  -13.99146
       H   -14.39224    5.58823  -13.06859
       O   -14.95790    4.94207  -13.49624
      H1   -14.75526    5.03317  -14.44763
       H   -18.68434    2.93895   -9.88722
       O   -18.66793    2.03057  -10.29815
      H1   -18.20010    1.61076   -9.51165
       H   -15.01778   10.26510   -8.59766
       O   -15.08811   11.17006   -8.19882
      H1   -15.97383   11.42127   -8.24080
       H    -9.03666    8.48129   -7.13670
       O    -8.44530    8.42788   -6.37752
      H1    -8.80628    7.64460   -5.88658
       H   -16.22408    7.47183   -8.98334
       O   -17.00679    7.28526   -8.49004
      H1   -17.66890    7.53553   -9.13902
       H    -7.37072    7.68338   -7.81736
       O    -6.97405    7.51853   -8.70425
      H1    -6.49315    6.65498   -8.51064
       H   -15.76180   -0.07291   -5.30446
       O   -15.18251   -0.28934   -6.08253
      H1   -14.40436   -0.76202   -5.63984
       H    -9.45589    0.28609  -10.79778
       O    -9.75022    1.06357  -11.27438
      H1   -10.10058    0.72027  -12.10717
       H   -12.06554    9.66605   -6.60229
       O   -11.86086    9.28034   -5.75001
      H1   -11.05518    9.76020   -5.46636
       H   -19.18003    4.92173   -6.58466
       O   -19.60793    5.63018   -6.08415
      H1   -19.43390    5.41262   -5.16469
       H   -15.53816   -1.48638  -10.05242
       O   -16.50225   -1.72055   -9.97706
      H1   -16.64860   -2.58487  -10.43811
       H    -7.62801    4.41062  -12.44226
       O    -7.29927    5.26103  -12.15418
      H1    -8.17248    5.76075  -12.16724
       H   -17.25138    3.78443   -7.53060
       O   -18.05362    4.35052   -7.75743
      H1   -17.63270    5.10655   -8.25201
       H   -12.62537   -1.81006  -13.23441
       O   -13.00889   -1.04193  -12.86889
      H1   -12.24629   -0.46730  -12.88797
       H   -16.43305    7.52822   -6.90345
       O   -16.31213    7.80354   -5.95994
      H1   -17.23633    7.87376   -5.63280
       H   -17.10000   -2.14679   -7.97200
       O   -16.80210   -2.26947   -7.05545
      H1   -16.17280   -1.50927   -7.01130
       H   -19.35409    6.73510  -10.45230
       O   -19.10848    7.63319  -10.47053
      H1   -19.81664    8.07687   -9.97392
       H   -14.12803   -0.70038  -10.84929
       O   -14.07210   -0.59029   -9.88011
      H1   -13.38172   -1.21230   -9.52699
       H   -12.29131    4.21744   -5.05853
       O   -11.71723    3.47304   -4.77662
      H1   -10.84901    3.92857   -4.89684
       H   -12.35363    7.21609  -12.46903
       O   -12.93739    6.64279  -12.99130
      H1   -12.41767    6.63189  -13.82593
       H   -14.88187    2.14800   -6.93510
       O   -15.77926    2.56897   -6.91815
      H1   -15.66708    2.86299   -5.98465
       H    -9.99210   -1.07897   -5.98049
       O   -10.28423   -0.78954   -6.85178
      H1   -10.24733    0.19413   -6.96470
       H   -12.46029   -3.07731   -6.08423
       O   -12.62466   -2.11507   -6.26545
      H1   -11.72965   -1.72016   -6.20140
       H   -10.37683    6.75563   -4.80102
       O    -9.44228    6.56394   -4.74296
      H1    -9.36120    6.27805   -3.78830
       H    -9.71438    2.93100   -8.56409
       O    -9.61203    3.23834   -9.48319
      H1   -10.01101    2.51101   -9.98946
       H   -10.53384    4.97424   -9.77520
       O   -11.29359    5.54706   -9.90088
      H1   -10.83640    6.26682  -10.38328
       H   -10.11071    2.62767   -6.34188
       O   -10.46187    1.99833   -7.02601
      H1   -11.40095    2.04617   -6.80974
       H   -15.07233    2.70624   -3.52388
       O   -15.40594    3.31929   -4.24129
      H1   -16.31888    3.46833   -4.00860
       H   -10.43128   10.23735   -8.62032
       O    -9.61744    9.66146   -8.54728
      H1    -9.05696   10.22118   -9.11648
       H    -6.47930    2.92489   -9.03614
       O    -7.18195    2.28129   -8.90292
      H1    -7.97136    2.75331   -9.20547
       H   -14.17491   -0.05241  -13.77255
       O   -15.01052    0.35945  -14.04176
      H1   -14.97781    1.20438  -13.49984
       H   -14.92859   11.38963   -6.47078
       O   -14.99607   11.55255   -5.48561
      H1   -15.24209   10.68774   -5.12258
       H   -17.57238    7.58381   -3.32444
       O   -18.33661    8.08025   -3.63641
      H1   -18.23560    9.08759   -3.34615
       H   -17.85008    9.68820  -10.68281
       O   -17.18460   10.27129  -10.30985
      H1   -17.64554   10.56483   -9.50905
       H   -13.48228    9.05230   -4.67917
       O   -14.28638    8.66015   -4.26240
      H1   -14.85170    8.30189   -4.92095
       H   -12.05914    2.18242  -14.69053
       O   -11.36480    2.53897  -14.15361
      H1   -11.84750    2.77100  -13.34125
       H   -12.32156   11.56963   -8.03771
       O   -12.08277   10.71109   -8.42066
      H1   -12.35146   10.85057   -9.31761
       H   -12.21309    3.66253   -1.44855
       O   -11.94588    4.40694   -2.07376
      H1   -11.89795    3.88848   -2.92012
       H   -13.88921    5.30203   -2.16162
       O   -14.82702    5.00696   -1.94077
      H1   -15.09059    4.26550   -2.56300
       H   -15.70996    9.27915  -10.62508
       O   -14.98358    8.66647  -10.46820
      H1   -14.27342    8.97252  -11.11216
       H   -10.34828    5.73721   -1.96919
       O    -9.36438    5.82925   -2.08017
      H1    -9.22483    6.70825   -1.78082
       H   -19.57561    4.00832   -3.11462
       O   -18.95181    4.04670   -3.86686
      H1   -18.39154    4.91641   -3.76459
       H    -8.34350    3.84729   -5.41896
       O    -9.31512    4.02669   -5.66053
      H1    -9.23977    4.97703   -5.46418

