180
frame 8 | Written by MDAnalysis XYZWriter (release 2.4.3)
       H    16.42229   18.38854   -2.67599
       O    16.76929   19.29600   -2.52651
      H1    17.71790   19.29345   -2.64811
       H    15.37377   11.30362   -6.94378
       O    15.81937   11.77110   -7.68959
      H1    15.09772   12.31543   -8.02497
       H     8.36826   15.57272   -5.73451
       O     9.18825   15.74370   -5.28489
      H1     8.85973   16.21725   -4.39635
       H    12.62771   14.79020   -0.85204
       O    12.06410   15.29346   -0.26192
      H1    12.15770   16.22569   -0.55816
       H    12.88308   19.08713   -7.33616
       O    13.58412   18.80710   -6.71903
      H1    13.45447   17.82291   -6.63930
       H    15.44994   18.75369   -7.16639
       O    16.12274   18.35641   -7.76009
      H1    16.41187   17.54420   -7.22959
       H    15.67694    8.17495   -8.93522
       O    16.19671    7.94607   -8.16207
      H1    16.71501    7.12761   -8.33759
       H     5.35215   12.36116   -2.99737
       O     6.20795   12.53760   -2.70279
      H1     6.74894   12.23855   -3.43882
       H    16.02277   10.25473   -2.55385
       O    16.81656    9.70606   -2.45449
      H1    17.42940   10.02691   -3.10274
       H    16.44913   14.03183    1.23685
       O    16.64361   14.88352    1.61723
      H1    17.04386   14.62993    2.44360
       H    13.24295    7.04232   -6.02674
       O    12.61405    7.57893   -5.51322
      H1    13.18415    8.23528   -5.15635
       H    17.20767    8.03043   -1.44356
       O    17.36135    7.08895   -1.31683
      H1    17.43525    7.02230   -0.32660
       H    15.48738    8.92217   -5.80110
       O    14.81740    9.63745   -5.76789
      H1    14.67259    9.86039   -4.80838
       H    13.97603   15.10341   -2.63740
       O    13.43418   14.27663   -2.41626
      H1    12.62860   14.27554   -2.95894
       H    11.34465    5.96504   -4.61686
       O    10.66307    5.34098   -4.99365
      H1    11.05640    4.53635   -4.73379
       H    11.28475   11.48188   -1.77582
       O    12.17125   11.62057   -2.16398
      H1    12.62886   12.04128   -1.40689
       H     9.14347   11.31031   -8.50397
       O     9.97324   11.72560   -8.23493
      H1    10.65466   11.39659   -8.83525
       H     9.82823   16.14197   -8.35517
       O     9.75932   15.21812   -8.34758
      H1    10.47549   14.99499   -7.76997
       H    15.69621   11.47996    0.66562
       O    16.18336   12.17230    0.25481
      H1    17.09907   11.75727    0.34523
       H    13.34604   10.27890   -2.64562
       O    13.83323    9.58210   -3.08651
      H1    14.36836    9.08937   -2.52066
       H     9.78208   13.71872   -1.05844
       O     9.59258   14.65183   -0.67487
      H1    10.34911   14.88314   -0.16535
       H    14.78832    5.44380   -7.35843
       O    14.24035    6.27752   -7.36797
      H1    14.99886    6.86229   -7.49540
       H    15.53163   12.38173   -1.67220
       O    15.41855   12.14760   -2.58399
      H1    14.65927   12.67097   -2.76898
       H    19.30619   15.75858   -5.03854
       O    18.67441   16.21345   -4.43922
      H1    18.84230   17.11258   -4.74829
       H    12.21123    8.29824   -7.07177
       O    11.81214    8.51360   -7.91823
      H1    11.37975    7.72594   -8.27490
       H    10.46454   14.46188   -3.94153
       O    11.11673   13.73723   -3.87307
      H1    10.84741   13.31594   -3.02856
       H    17.64854   13.07792   -4.67276
       O    17.69120   12.87089   -3.67646
      H1    16.71676   12.67861   -3.49735
       H     6.07816   11.37495   -6.42271
       O     6.92568   11.16338   -6.81350
      H1     6.73758   11.12943   -7.74015
       H    16.97183   12.70775   -6.74374
       O    17.50684   13.36508   -6.28421
      H1    17.13769   14.23870   -6.53947
       H    15.28184   12.86845  -11.60708
       O    14.37554   13.01735  -12.09343
      H1    14.39347   13.85639  -12.55569
       H     8.97341   11.74309   -0.53776
       O     9.62181   11.91525   -1.23122
      H1     9.14057   11.97226   -2.04743
       H     9.06574   11.41478   -4.66553
       O     8.76797   11.39299   -3.77446
      H1     8.13927   10.64896   -3.88365
       H    13.79231    8.83009  -10.45152
       O    14.17903    9.12042   -9.56543
      H1    13.48061    8.93657   -8.96463
       H    18.00987   15.74119   -2.62557
       O    17.27259   15.80927   -1.94091
      H1    17.37831   14.96094   -1.50092
       H    18.54258   14.69863   -9.61769
       O    17.60260   14.90691   -9.66453
      H1    17.59261   15.76058  -10.07208
       H    18.57034   11.77021   -6.20959
       O    19.30708   11.19064   -6.04156
      H1    19.17823   10.56770   -6.72761
       H    10.47494    7.99471   -3.42990
       O    11.03079    8.24417   -2.66323
      H1    11.58807    8.93063   -2.97972
       H    12.43532   11.57130    1.17929
       O    13.12242   11.62996    0.52459
      H1    13.27334   10.66589    0.27902
       H    10.87801   15.11629    2.67463
       O    11.80644   14.72537    2.41817
      H1    11.93668   15.02866    1.47465
       H     9.81568    8.20359   -5.51044
       O     9.26190    7.70332   -4.83951
      H1     9.43997    6.76802   -4.90371
       H    10.88360   11.64643  -10.77298
       O    11.63135   12.16873  -10.56612
      H1    11.30228   13.09382  -10.71585
       H     9.07932   17.97877   -7.28595
       O     9.81993   18.09179   -6.60332
      H1     9.76435   17.29258   -6.02790
       H    10.81873   15.03336   -9.87401
       O    11.06039   14.66120  -10.75972
      H1    10.19109   14.67639  -11.20068
       H    17.41562   16.09814   -5.78775
       O    16.71762   15.91741   -6.48650
      H1    15.94424   15.90041   -5.94512
       H    19.47503   11.16391   -1.48594
       O    19.65344   11.78926   -2.17303
      H1    18.78317   12.04335   -2.49400
       H     9.47032    8.60441   -1.28723
       O     8.61653    8.39787   -0.80533
      H1     8.08221    9.10507   -1.19296
       H    13.29176    8.59639    0.35589
       O    14.02972    8.80726   -0.30245
      H1    14.34332    7.95070   -0.54560
       H     8.15369   14.56086   -7.56698
       O     7.27966   14.58410   -7.12814
      H1     7.31159   13.67732   -6.85999
       H    14.05201   15.13171   -5.16597
       O    14.14209   16.00509   -5.51611
      H1    13.71623   15.68579   -6.31508
       H    19.36666   10.32011   -3.41425
       O    19.00751    9.55488   -3.90337
      H1    19.12250    9.88569   -4.82986
       H    15.64630   16.38129   -2.43164
       O    14.78150   16.63934   -2.79219
      H1    14.86811   16.43232   -3.73474
       H    13.45518   14.15926   -8.29207
       O    13.33348   15.09018   -8.37336
      H1    13.90409   15.35131   -9.10370
       H    12.50177   12.23110   -8.84293
       O    12.96527   11.95014   -8.03438
      H1    13.35174   11.16493   -8.42727
       H    17.66860    8.62880   -7.66578
       O    18.57041    9.08290   -7.69289
      H1    19.04497    8.31206   -7.30192
       H    11.07153    9.71288   -6.34196
       O    10.27196   10.09700   -5.99930
      H1    10.11405   10.75276   -6.73048
       H    12.56426   12.86037   -4.44155
       O    13.35618   12.63656   -4.89083
      H1    12.93061   12.11834   -5.60199
       H    16.35569   11.99932   -9.96032
       O    16.60534   11.85729  -10.87709
      H1    17.26637   12.59906  -10.98374
       H    13.11370   17.40277   -1.67967
       O    12.15159   17.54219   -1.74776
      H1    12.06895   18.03226   -0.88251
       H     9.77346   15.91125   -1.94156
       O     9.72767   16.60240   -2.58272
      H1    10.54857   17.08398   -2.40923
       H    17.37707    8.18993   -4.25619
       O    16.96440    7.64159   -4.96101
      H1    16.82813    6.84677   -4.48929

