180
frame 0 | Written by MDAnalysis XYZWriter (release 2.4.3)
       H    -9.82564   11.96970   -9.68655
       O    -9.11571   11.30245   -9.61045
      H1    -8.79702   11.12339  -10.52094
       H   -12.64978   19.48352   -8.17908
       O   -12.82893   19.64742   -9.13713
      H1   -12.59165   18.79161   -9.50667
       H    -5.30914   18.52425   -7.80428
       O    -4.53760   18.97297   -8.03617
      H1    -4.37855   19.48845   -7.20093
       H   -18.17202   12.08506   -7.87035
       O   -17.34605   11.91773   -8.43109
      H1   -17.20897   12.77586   -8.83005
       H   -19.16216   17.02898  -16.76556
       O   -18.22096   17.09293  -16.39354
      H1   -18.34032   17.45148  -15.48407
       H   -18.24068   14.26639  -10.46016
       O   -18.60857   14.39976   -9.56030
      H1   -18.62119   15.35569   -9.48673
       H    -8.31832   13.24396  -14.16604
       O    -8.53619   12.32181  -14.37791
      H1    -9.52360   12.38753  -14.36284
       H    -7.68202   11.81559   -8.86950
       O    -6.87979   12.17221   -8.39404
      H1    -6.86389   11.55564   -7.64995
       H   -16.39684   14.89163  -14.66657
       O   -16.46099   15.38725  -13.80417
      H1   -16.82314   14.69871  -13.21855
       H   -12.75009   18.89057   -3.54705
       O   -12.18414   18.12598   -3.57160
      H1   -11.85008   18.17081   -2.69632
       H   -14.86774   19.53859   -8.58016
       O   -15.52905   19.17801   -7.99531
      H1   -15.83529   18.42402   -8.54272
       H    -7.42056   17.09654   -5.55764
       O    -7.02496   16.42132   -5.01366
      H1    -7.34676   15.58036   -5.31346
       H   -13.04118    9.43038  -12.27799
       O   -12.85518    9.03725  -11.44792
      H1   -12.59897    9.83858  -10.92188
       H   -16.64183   16.87607   -9.80749
       O   -15.67179   17.05053   -9.79699
      H1   -15.54234   17.31679  -10.73664
       H   -14.71651   16.38535  -13.05145
       O   -14.33474   17.04041  -12.49006
      H1   -13.92907   17.65426  -13.13789
       H   -15.51241   10.83433   -6.92078
       O   -14.98886   11.61099   -6.84825
      H1   -15.45761   12.22604   -7.48214
       H   -17.03970   16.60369   -6.19839
       O   -16.54678   15.82373   -6.02847
      H1   -17.17380   15.37497   -5.36027
       H   -16.94170   18.96381   -6.60479
       O   -17.36438   18.36597   -5.95323
      H1   -18.20101   18.82357   -5.86577
       H   -12.80818   18.27681  -15.40088
       O   -13.25311   18.17880  -16.26679
      H1   -12.49887   17.94567  -16.84044
       H   -12.62243   19.83739  -13.75921
       O   -12.43217   18.85438  -13.74906
      H1   -11.45851   18.74363  -13.58822
       H    -7.52127   18.73330   -7.83032
       O    -7.11706   18.00202   -7.35022
      H1    -7.31208   17.17283   -7.77187
       H   -15.10633   11.97348  -14.98883
       O   -15.90002   11.82448  -14.39102
      H1   -15.55556   12.01413  -13.50444
       H   -11.17499   16.41779   -6.95402
       O   -10.24322   16.51178   -6.62085
      H1   -10.29592   16.37305   -5.68167
       H   -18.93394   16.84046  -13.39022
       O   -18.06243   17.34890  -13.37853
      H1   -17.52897   16.53190  -13.45481
       H   -10.42941   14.28519  -10.75320
       O   -11.06435   13.81937  -10.22904
      H1   -11.19872   14.57381   -9.59285
       H    -9.45065   16.25894  -11.72339
       O    -9.39144   15.29948  -11.58145
      H1    -8.87648   15.18459  -10.75038
       H   -13.56400   15.50860  -19.06174
       O   -13.39454   15.01548  -18.27925
      H1   -12.58659   15.39011  -17.87499
       H    -8.37298   19.54305  -15.88773
       O    -7.52008   19.46932  -15.34509
      H1    -7.55163   18.59298  -14.96029
       H   -12.39995   14.94490   -7.41405
       O   -12.50735   15.54180   -8.24419
      H1   -13.12528   16.22937   -7.82356
       H    -7.72905   15.15031  -13.02673
       O    -7.43629   14.46268  -13.67861
      H1    -7.22168   14.92735  -14.49826
       H   -14.86598   18.29235  -15.56076
       O   -15.52677   18.42029  -14.83623
      H1   -15.93795   17.52703  -14.80697
       H   -10.41295   15.81064  -18.31767
       O   -10.73690   16.45631  -17.69205
      H1    -9.93473   16.61127  -17.15268
       H    -7.37600   18.03319  -17.22972
       O    -7.95513   17.34079  -17.59095
      H1    -7.94884   16.60729  -16.88933
       H   -14.99964   16.28493   -4.15874
       O   -14.17243   15.95430   -3.73158
      H1   -13.51061   16.54662   -4.16509
       H   -15.46711   15.01592   -8.86035
       O   -15.72471   14.22254   -8.40283
      H1   -16.06827   14.57045   -7.56137
       H    -5.34344   16.24700  -10.12972
       O    -4.87910   15.85491   -9.32471
      H1    -4.89583   14.89492   -9.45633
       H    -8.12417   14.20015   -4.30416
       O    -7.66588   13.86247   -5.08836
      H1    -7.61176   12.97623   -4.80933
       H    -7.68851   14.40146   -8.70458
       O    -7.54238   15.29391   -9.06488
      H1    -6.59816   15.50054   -8.91152
       H   -12.43713   18.52519   -6.27560
       O   -12.24022   19.47230   -6.45881
      H1   -11.29325   19.55059   -6.28431
       H   -11.76926   15.01694  -12.30026
       O   -12.27434   15.24697  -13.13154
      H1   -12.94156   15.83894  -12.79219
       H   -10.34591   15.57335   -3.61068
       O   -10.06214   16.35372   -4.10811
      H1   -10.68462   17.00357   -3.78481
       H   -12.11282   12.10356  -14.31287
       O   -11.27265   12.52655  -13.99721
      H1   -11.36400   13.50356  -14.08520
       H   -13.72502   10.88521  -15.61434
       O   -13.72723   11.77873  -15.91269
      H1   -13.79844   11.58085  -16.87186
       H   -12.73670   16.70917   -9.81375
       O   -12.43454   17.31975  -10.50689
      H1   -13.26078   17.38419  -11.06120
       H    -8.74283   13.90555   -6.48178
       O    -9.45029   13.96072   -7.20043
      H1    -9.36166   14.92221   -7.32087
       H   -18.96125   17.10737  -10.36158
       O   -18.47215   16.97655   -9.57455
      H1   -18.87045   17.65213   -8.93470
       H    -7.43640   11.72769  -12.70872
       O    -7.06454   11.42519  -11.89371
      H1    -6.15262   11.28421  -12.15906
       H    -9.93524   18.99198  -12.19487
       O    -9.88421   17.99589  -12.03320
      H1   -10.66667   17.92888  -11.48511
       H   -13.82672   11.84439   -9.28898
       O   -13.71941   12.29267  -10.13595
      H1   -12.78889   12.55405  -10.12912
       H   -11.75685   12.79923  -16.47068
       O   -11.23258   12.72510  -17.30118
      H1   -11.34152   13.55719  -17.71510
       H   -12.30443   13.76165   -5.39124
       O   -12.03951   13.80693   -6.31663
      H1   -11.02726   13.63814   -6.31573
       H   -16.30525   18.47855   -4.40383
       O   -15.87527   18.39561   -3.52504
      H1   -16.56701   17.93935   -2.99016
       H   -18.23912   13.30632  -12.64616
       O   -17.85840   13.96452  -12.03157
      H1   -17.08392   13.49866  -11.66253
       H    -6.84908   17.24954  -12.96093
       O    -7.46421   17.13284  -13.74737
      H1    -8.26080   17.59575  -13.46280
       H   -16.01909   11.44359  -11.36224
       O   -15.69736   12.33978  -11.72804
      H1   -14.87698   12.44149  -11.23030
       H   -12.32358   12.45027   -7.19936
       O   -12.52474   11.52480   -7.40030
      H1   -13.50611   11.53505   -7.10673
       H   -14.44788   17.98482   -7.10499
       O   -14.09024   17.25498   -6.59097
      H1   -14.91285   16.70209   -6.66428
       H    -5.89656   18.02705  -11.35253
       O    -5.58771   17.15494  -11.64653
      H1    -4.75443   17.42764  -12.05655
       H   -13.43717   14.22743   -4.01785
       O   -12.78123   13.51628   -3.81848
      H1   -13.44667   12.87845   -3.71858
       H    -9.53089   18.22237   -5.91553
       O    -9.42737   19.10407   -5.63446
      H1    -8.54791   19.34135   -5.96336

