180
frame 3 | Written by MDAnalysis XYZWriter (release 2.4.3)
       H   -13.25858    1.06491   -9.83493
       O   -12.65025    1.83284   -9.60932
      H1   -12.79773    2.48112  -10.34023
       H   -16.85436   -7.60427   -2.59148
       O   -16.65324   -7.06265   -3.42276
      H1   -16.32105   -7.77093   -3.97963
       H   -15.41608   -4.21119   -3.36495
       O   -15.39461   -3.47999   -2.74975
      H1   -14.95644   -3.91545   -1.98044
       H    -7.98529    0.64066   -8.94778
       O    -8.55428   -0.13552   -8.99361
      H1    -8.91954   -0.43312   -8.12272
       H    -6.71783   -8.44185   -6.01126
       O    -7.57535   -8.28981   -5.55580
      H1    -7.40905   -7.46051   -5.06314
       H   -11.27238   -5.00773   -4.87676
       O   -11.81204   -4.84157   -5.67551
      H1   -11.44755   -5.54054   -6.32395
       H   -11.98165   -9.59557  -10.77670
       O   -12.35315   -9.40827  -11.69991
      H1   -12.83412  -10.23222  -11.73695
       H    -9.95316   -8.05875   -9.68503
       O   -10.89401   -7.84627   -9.40736
      H1   -11.17346   -7.40015  -10.18686
       H   -13.33549   -3.29836   -8.99262
       O   -12.71694   -2.54114   -8.91120
      H1   -12.68766   -2.37440   -7.92665
       H    -8.54975   -5.70122  -12.61194
       O    -9.11163   -6.34852  -13.01309
      H1    -8.95228   -6.22205  -13.97697
       H   -10.80275   -6.58970  -12.08565
       O   -11.52420   -6.31386  -11.54611
      H1   -12.32086   -6.66339  -11.94559
       H   -12.44529  -12.65548   -8.95218
       O   -13.05741  -13.34923   -8.95721
      H1   -12.53727  -14.21494   -8.91171
       H   -15.49938   -5.05886   -8.33200
       O   -16.30971   -4.87147   -7.83307
      H1   -16.11393   -3.97506   -7.49661
       H    -8.81447   -3.47896  -10.83169
       O    -7.99756   -3.89775  -10.53101
      H1    -7.33778   -3.12180  -10.47107
       H   -16.84723   -0.98856  -11.83482
       O   -16.87976   -1.35123  -12.72847
      H1   -16.40852   -0.69107  -13.27977
       H   -10.35160   -7.30459   -7.79250
       O   -10.34667   -6.65992   -7.01007
      H1   -10.26436   -7.28318   -6.26671
       H   -16.57885   -7.63996   -9.27527
       O   -16.40484   -7.92983  -10.23014
      H1   -15.80054   -8.62803  -10.06635
       H   -15.76180   -0.07291   -5.30446
       O   -15.18251   -0.28934   -6.08253
      H1   -14.40436   -0.76202   -5.63984
       H   -11.31109   -3.02917  -10.39145
       O   -10.84129   -3.53262  -11.08180
      H1   -11.26350   -4.43220  -10.96093
       H    -9.04142  -10.22605   -7.02331
       O   -10.00236  -10.21195   -6.93238
      H1   -10.15165  -11.12448   -6.66228
       H   -16.91283   -6.65155   -7.41537
       O   -16.94574   -7.60185   -7.46295
      H1   -17.92258   -7.72701   -7.35231
       H   -18.23041   -3.12568   -5.99054
       O   -18.95102   -3.18450   -5.30463
      H1   -18.55217   -3.76631   -4.65680
       H    -8.87626   -2.10693  -12.79535
       O    -8.61191   -1.26193  -12.43501
      H1    -7.69297   -1.29690  -12.55416
       H   -13.37964   -8.47046   -3.79816
       O   -13.29158   -8.67068   -4.73930
      H1   -14.16588   -9.09328   -4.88149
       H   -15.53816   -1.48638  -10.05242
       O   -16.50225   -1.72055   -9.97706
      H1   -16.64860   -2.58487  -10.43811
       H   -18.48570   -2.92036  -11.72414
       O   -18.49106   -3.49556  -10.96130
      H1   -18.17927   -4.33156  -11.26500
       H   -12.62537   -1.81006  -13.23441
       O   -13.00889   -1.04193  -12.86889
      H1   -12.24629   -0.46730  -12.88797
       H   -10.14928   -3.46705  -13.85952
       O    -9.21532   -3.45931  -14.20177
      H1    -9.41028   -3.41637  -15.16674
       H   -10.96534   -2.33541   -3.53353
       O   -10.23581   -1.93708   -4.06550
      H1    -9.38685   -2.22438   -3.71066
       H   -11.21960  -11.72912  -12.57885
       O   -10.66718  -10.99198  -12.95127
      H1   -11.11918  -10.23913  -12.46532
       H   -15.84426   -9.44963  -12.90306
       O   -15.16053   -9.13585  -13.46357
      H1   -14.54883   -8.81364  -12.82735
       H   -14.54290  -10.28935   -9.85241
       O   -15.10092  -10.23256   -9.03699
      H1   -14.79366   -9.43034   -8.62890
       H   -12.45459  -10.46925   -8.58043
       O   -11.82477  -10.59956   -9.33577
      H1   -11.02107  -10.47517   -8.85544
       H   -14.09964  -12.39891  -11.90842
       O   -14.06464  -11.44155  -12.01350
      H1   -14.58837  -11.28592  -12.84840
       H   -17.10000   -2.14679   -7.97200
       O   -16.80210   -2.26947   -7.05545
      H1   -16.17280   -1.50927   -7.01130
       H   -17.92943   -8.89115  -10.21082
       O   -18.49659   -9.67125  -10.24706
      H1   -19.31019   -9.23892  -10.05897
       H   -14.12803   -0.70038  -10.84929
       O   -14.07210   -0.59029   -9.88011
      H1   -13.38172   -1.21230   -9.52699
       H   -11.37802   -8.72437   -4.68513
       O   -10.54553   -8.24604   -4.56475
      H1    -9.88445   -8.90979   -4.92518
       H    -9.99210   -1.07897   -5.98049
       O   -10.28423   -0.78954   -6.85178
      H1   -10.24733    0.19413   -6.96470
       H    -8.25588   -4.49925   -8.91799
       O    -7.98917   -4.77943   -8.00981
      H1    -8.79654   -5.20658   -7.69020
       H   -12.46029   -3.07731   -6.08423
       O   -12.62466   -2.11507   -6.26545
      H1   -11.72965   -1.72016   -6.20140
       H   -16.07468   -3.63801  -12.59090
       O   -15.61838   -4.43779  -12.88181
      H1   -14.99980   -4.04668  -13.55579
       H    -6.30648   -5.01746   -8.24236
       O    -5.35382   -5.06677   -8.19770
      H1    -5.18883   -5.24437   -7.30425
       H    -8.03402   -9.44179   -9.87412
       O    -8.27785   -8.71352   -9.21214
      H1    -7.50860   -8.20823   -9.23454
       H   -14.98581   -5.75586   -5.31219
       O   -14.51612   -5.17206   -4.73829
      H1   -13.57350   -5.12465   -5.11122
       H   -12.11840   -3.73990  -12.65006
       O   -12.02809   -3.48590  -13.58262
      H1   -12.56254   -4.09689  -14.15123
       H   -13.18746   -8.46014   -6.88232
       O   -13.35898   -8.13836   -7.77516
      H1   -12.49665   -8.03567   -8.19536
       H   -13.87078   -5.75822   -3.23048
       O   -13.42680   -6.18713   -2.44879
      H1   -12.98722   -5.37689   -2.12528
       H   -16.20655   -6.05536  -14.36859
       O   -16.28075   -6.86379  -14.91702
      H1   -15.65536   -7.50805  -14.61893
       H   -14.25032  -11.81862   -7.51978
       O   -13.61660  -11.44437   -6.88293
      H1   -14.03472  -11.37895   -6.01559
       H   -18.05333  -11.56960   -6.85837
       O   -17.35281  -10.92396   -6.73798
      H1   -17.24392  -10.67433   -7.66229
       H    -9.27290   -3.17781   -5.41548
       O    -8.44689   -3.16300   -5.83365
      H1    -8.57823   -3.77766   -6.60605
       H    -8.22169   -5.50272   -3.43749
       O    -7.69967   -5.63214   -4.25418
      H1    -8.05887   -4.96596   -4.89187
       H   -13.81579   -4.43428  -16.35530
       O   -13.89270   -4.88831  -15.47248
      H1   -13.79136   -5.86205  -15.66516
       H   -17.42189   -5.71436   -3.53133
       O   -17.79025   -4.83429   -3.59653
      H1   -17.08518   -4.27508   -3.27966
       H   -12.29525   -2.88059   -1.93918
       O   -12.47023   -3.00642   -2.83872
      H1   -13.42908   -2.79413   -2.86402
       H   -14.09551   -5.74097   -9.95910
       O   -13.84037   -5.11630   -9.32706
      H1   -13.20269   -5.63541   -8.80635
       H   -16.26648   -9.85391   -5.38849
       O   -15.96599   -8.97633   -5.27535
      H1   -16.39388   -8.60272   -6.10617
       H   -15.32750   -7.01586  -11.28552
       O   -14.53691   -6.52619  -11.56415
      H1   -14.93700   -5.73009  -11.98226
       H   -19.56525   -5.72041  -12.35224
       O   -18.89825   -6.33295  -11.86427
      H1   -18.75639   -7.03491  -12.51168

