180
frame 6 | Written by MDAnalysis XYZWriter (release 2.4.3)
       H     9.68284   10.38215   -9.90002
       O     8.80928   10.16430  -10.23582
      H1     8.35152    9.72001   -9.48132
       H    15.88254   10.66845   -7.13213
       O    15.83220   11.14502   -7.96777
      H1    14.98848   11.59231   -7.86535
       H    14.32477   14.80422  -13.59131
       O    14.14705   15.36463  -12.82799
      H1    13.15430   15.38345  -12.86811
       H    12.37796   18.38695   -6.50650
       O    12.88077   18.38496   -5.67071
      H1    12.76200   17.53839   -5.27284
       H    14.68057   18.57280   -6.66564
       O    15.50524   18.38217   -7.16116
      H1    15.90977   17.64311   -6.75309
       H    15.08288    7.82016   -8.45757
       O    15.86279    7.47146   -7.96875
      H1    16.23829    6.84643   -8.65772
       H    15.62273   10.29238   -0.36210
       O    16.47435    9.77458   -0.45943
      H1    17.15342   10.36940   -0.07387
       H    13.87483    7.18683   -4.82787
       O    12.99570    7.56303   -4.61462
      H1    13.17451    8.16156   -3.93035
       H    11.80705    8.30154  -13.84765
       O    11.34757    7.79440  -14.48914
      H1    11.95848    7.02230  -14.64646
       H    16.83642    9.24702   -5.03736
       O    16.34306    9.88924   -5.58821
      H1    15.54531    9.99317   -4.97478
       H    13.32732   14.66405   -1.97112
       O    13.14119   13.95471   -1.33160
      H1    12.55312   13.39772   -1.89132
       H    12.10077    6.92722   -7.67439
       O    12.95120    7.14101   -8.06843
      H1    13.55332    6.51847   -7.64036
       H    11.48278    7.03869   -5.27130
       O    10.72384    6.54473   -5.63761
      H1    10.93306    5.62826   -5.47453
       H    12.49104   18.04209  -10.39181
       O    13.04365   18.74198  -10.15528
      H1    13.77234   18.28215   -9.64237
       H     7.98741   12.41367   -8.34478
       O     8.91676   12.64242   -8.08686
      H1     9.25763   13.32585   -8.70249
       H    16.51582   13.81622  -14.59843
       O    15.69841   14.24468  -14.84696
      H1    15.42610   13.80872  -15.68657
       H     9.72633   15.98109   -9.20106
       O    10.32101   15.35897   -8.76022
      H1    10.24257   15.63004   -7.89022
       H    15.80879    9.81907  -13.26377
       O    15.01648   10.05457  -13.73223
      H1    14.99243   11.02452  -13.57339
       H    14.07966   11.03166   -3.57875
       O    14.07673   10.08144   -3.41617
      H1    14.22710   10.06456   -2.48276
       H    15.22949    5.38621  -12.47676
       O    14.64749    6.13462  -12.26137
      H1    14.02247    6.08162  -13.01353
       H    19.88884    6.04040   -7.17203
       O    19.03994    6.42137   -6.86748
      H1    19.04046    6.11788   -5.94577
       H    14.63987    4.63639   -6.88951
       O    14.53380    5.51655   -6.49405
      H1    15.30300    5.98562   -6.86599
       H    15.75230   12.37759   -0.32983
       O    15.28676   12.30289   -1.17435
      H1    14.50367   12.89087   -0.98928
       H    19.19791   15.85546   -4.80476
       O    18.49143   16.27262   -4.28256
      H1    18.98744   16.99473   -3.91566
       H    13.41659    8.95158   -5.77331
       O    13.40314    9.30209   -6.63259
      H1    13.14087    8.60930   -7.21902
       H    11.24678   14.08616   -3.98030
       O    11.64313   13.21607   -3.75656
      H1    10.89509   12.67437   -4.11453
       H    18.13571   11.29093   -3.76726
       O    17.78557   11.68269   -2.98287
      H1    16.92122   11.23425   -2.88298
       H    14.91666    5.20625   -3.44251
       O    15.49808    4.48826   -3.27515
      H1    14.83928    3.84209   -2.99992
       H    16.88206   12.42380   -6.83699
       O    17.69377   12.87460   -6.73580
      H1    17.46137   13.81496   -6.74166
       H    15.18207   12.23384  -11.65452
       O    14.40798   12.47588  -12.19033
      H1    14.55195   13.39330  -12.17244
       H     9.52445   11.32657   -5.66951
       O     9.49615   11.79296   -4.79246
      H1     8.95140   12.50754   -5.03298
       H    14.23497    8.05086  -11.05187
       O    14.75367    8.60066  -10.42719
      H1    14.46183    9.45804  -10.71557
       H    17.42110   14.36196   -2.37120
       O    16.55301   14.71275   -2.09610
      H1    16.14295   13.92950   -1.73677
       H    18.77574   14.54029  -10.17525
       O    18.11351   14.51806  -10.83098
      H1    18.06513   13.52837  -10.99572
       H    18.42405   11.60619   -5.98803
       O    19.00989   10.96082   -5.50939
      H1    18.58266   10.10523   -5.74583
       H    15.44139    8.70206  -14.97618
       O    15.60736    7.78029  -15.24017
      H1    14.85293    7.23813  -14.92413
       H    10.10344    9.09163   -5.11947
       O     9.82746    8.56550   -4.39304
      H1     9.95733    7.67253   -4.82280
       H    19.73508    7.88570  -12.67437
       O    19.43564    8.78343  -12.80673
      H1    18.50772    8.66709  -12.55802
       H    10.36963   11.62603   -8.52137
       O    11.10333   11.33038   -9.07143
      H1    11.13224   12.20075   -9.55205
       H    11.29961   14.27301  -10.65553
       O    10.88821   13.40844  -10.86916
      H1    10.21169   13.76573  -11.49154
       H    17.21861   15.94460   -5.79433
       O    16.83127   15.61797   -6.61538
      H1    15.95123   15.25751   -6.30521
       H     8.88787    7.23493   -8.10192
       O     9.81172    6.82866   -8.11722
      H1    10.02508    6.85560   -7.17200
       H    19.14504   10.40189   -0.31049
       O    19.46364   10.86964   -1.11497
      H1    18.75570   11.00388   -1.75261
       H    16.18291    8.26442  -11.56938
       O    16.75599    8.18416  -12.32868
      H1    16.51358    7.33455  -12.68313
       H    12.86926    5.05993  -10.00564
       O    13.02207    4.11918  -10.06451
      H1    13.53032    3.93278  -10.85865
       H    13.39950    9.48996  -13.12756
       O    12.52820    9.35010  -12.70428
      H1    12.12475   10.27686  -12.87769
       H    14.19261   14.00766   -5.63387
       O    14.27969   14.90260   -6.00406
      H1    13.54916   15.08385   -6.61001
       H    14.94857   15.08058   -3.03541
       O    14.14960   15.51499   -3.36929
      H1    14.24368   15.47260   -4.38252
       H    12.18076   15.85476   -8.44396
       O    12.90315   16.18480   -7.91564
      H1    13.60082   16.20940   -8.59940
       H    12.71267   11.87557   -8.05603
       O    13.34986   12.01436   -7.35762
      H1    13.40827   11.11831   -7.00476
       H    17.52395    9.10699   -7.87148
       O    18.54603    9.06033   -7.77293
      H1    18.62539    8.16081   -7.38988
       H    11.76442   10.09665   -6.42336
       O    10.79794   10.21267   -6.59727
      H1    10.81181   10.18391   -7.56239
       H    14.50888    3.36368   -9.23927
       O    15.41326    2.94659   -9.14239
      H1    15.97978    3.62734   -9.52026
       H    13.08114   12.89731   -4.48513
       O    13.95833   12.57095   -4.82899
      H1    13.61842   12.34273   -5.78417
       H    16.13869   11.08456   -9.91486
       O    16.40577   11.01866  -10.83078
      H1    17.34065   11.30334  -10.85012
       H    17.76809    5.57813   -8.05257
       O    17.23358    4.94813   -8.49521
      H1    17.11215    4.38420   -7.75832
       H    19.10877   19.19302   -5.50648
       O    19.67917   18.40464   -5.62474
      H1    19.12321   17.87410   -6.14155
       H    19.05668    8.33887   -4.42253
       O    18.15357    8.00336   -4.58363
      H1    18.10814    7.38943   -3.81114
       H    15.95095   15.66364   -9.83005
       O    15.36912   16.22597   -9.29566
      H1    15.89713   16.92421   -8.92484
       H    12.72311   11.99202  -12.55113
       O    11.85530   11.89994  -12.89041
      H1    11.27932   12.28826  -12.23289

