180
frame 4 | Written by MDAnalysis XYZWriter (release 2.4.3)
       H    -9.73220   11.57698  -11.75107
       O    -9.18960   10.79346  -11.56013
      H1    -8.47896   10.90543  -12.19067
       H   -12.07637   19.64913   -8.45121
       O   -12.06429   19.32405   -9.39363
      H1   -12.17548   18.34823   -9.31309
       H    -3.79029   17.71517  -11.57202
       O    -4.34690   17.69113  -12.34043
      H1    -4.11219   16.89558  -12.78750
       H    -5.38948   17.58514   -8.59266
       O    -4.47531   17.95146   -8.75266
      H1    -4.38424   18.51287   -7.86921
       H   -17.58747   16.18206  -17.15916
       O   -16.64101   16.33399  -17.42669
      H1   -16.74950   16.18941  -18.38779
       H    -8.42316   13.28344  -14.70222
       O    -8.81504   13.03341  -15.56625
      H1    -9.59435   12.55920  -15.27559
       H   -15.41098   14.89574  -13.69251
       O   -15.54317   15.05103  -12.72540
      H1   -15.98563   14.22338  -12.49257
       H    -4.13202   17.67526  -17.17533
       O    -4.98489   17.30569  -17.02175
      H1    -5.52453   18.01378  -16.61938
       H   -13.86807   19.32335   -9.49739
       O   -14.75866   19.05234   -9.16941
      H1   -14.82532   18.24999   -9.65981
       H   -12.62929   11.37290  -11.63010
       O   -13.06061   10.52044  -11.58310
      H1   -12.98225   10.30175  -12.50677
       H   -16.70911   17.13386   -9.58973
       O   -16.12016   16.39771   -9.72911
      H1   -16.76921   15.75309  -10.03894
       H   -14.41631   16.51491  -11.43509
       O   -13.52607   16.84058  -11.42595
      H1   -13.61791   17.65473  -11.99560
       H    -4.06531   14.86840  -11.92979
       O    -4.94939   14.48150  -11.99913
      H1    -5.11512   14.58884  -12.94301
       H   -16.10052   16.12409   -8.01899
       O   -15.83853   15.89204   -7.04931
      H1   -16.52767   16.36491   -6.58391
       H    -5.96076   11.55143   -9.88744
       O    -5.38458   11.83605  -10.58036
      H1    -5.81424   11.82234  -11.41748
       H   -13.12417   19.69642  -14.88049
       O   -13.19928   19.78688  -15.82677
      H1   -12.43977   19.29309  -16.15447
       H   -12.88202   19.96535  -12.80324
       O   -12.93889   19.00690  -13.07504
      H1   -11.99976   18.84027  -13.28531
       H    -7.11728   18.41810   -8.27195
       O    -7.20156   17.61999   -7.72604
      H1    -7.70580   17.08277   -8.36783
       H    -8.42147   10.11225  -16.59929
       O    -8.16698   10.88292  -17.12128
      H1    -8.37123   11.60530  -16.44982
       H   -10.89199    9.77718  -18.14309
       O   -11.59474   10.45183  -17.96292
      H1   -11.09560   11.30854  -17.85869
       H   -14.95749   11.63004  -14.44416
       O   -15.86423   11.32050  -14.24330
      H1   -15.93148   11.65284  -13.33882
       H   -10.86732   16.23672   -6.73874
       O    -9.95652   16.20450   -6.36374
      H1   -10.05542   15.83812   -5.45707
       H    -3.77446   16.33002   -8.49087
       O    -3.23950   15.49659   -8.60514
      H1    -3.91577   14.94013   -8.96537
       H   -17.80793   16.83679  -14.67251
       O   -16.93264   17.07523  -14.26785
      H1   -16.75793   16.42088  -13.62454
       H   -10.20449   13.79999  -10.28459
       O   -10.55325   13.31022   -9.48217
      H1    -9.87500   13.46947   -8.80878
       H   -10.25076   15.19399  -11.90941
       O    -9.48215   14.66837  -11.64425
      H1    -9.05746   15.25944  -10.96800
       H   -12.19198   15.03713  -17.39624
       O   -12.44386   15.87570  -17.80354
      H1   -13.43003   15.92021  -17.63837
       H    -7.09030   19.91389  -15.55242
       O    -6.52051   19.18113  -15.61419
      H1    -7.07865   18.49429  -15.14806
       H   -12.63085   15.66323   -8.06614
       O   -12.41643   16.58765   -8.16543
      H1   -12.98461   16.95254   -7.49836
       H    -8.11832   14.67796  -12.80720
       O    -7.50355   14.47134  -13.59132
      H1    -7.32711   15.32624  -13.97073
       H   -14.72339   19.26084  -17.16510
       O   -15.65241   19.14570  -17.32024
      H1   -15.82734   18.20327  -17.20294
       H   -11.64349   17.34871  -16.82042
       O   -11.22586   18.03289  -16.20900
      H1   -10.34501   18.06086  -16.65510
       H    -7.62812   18.61761  -17.25636
       O    -8.42625   18.19344  -17.51862
      H1    -8.16429   17.23846  -17.55300
       H    -5.78248   13.60283   -9.89945
       O    -5.76352   14.24844   -9.17450
      H1    -5.91008   13.62951   -8.40279
       H    -7.30683   15.45641   -9.53694
       O    -7.96100   16.14136   -9.75618
      H1    -7.67112   16.55264  -10.57323
       H    -4.28295   13.21418  -14.76183
       O    -4.33423   14.10495  -15.07509
      H1    -4.72550   13.98298  -15.94385
       H   -11.70810   15.97774  -14.19301
       O   -12.00244   15.34576  -13.56045
      H1   -12.54068   15.96158  -13.03353
       H   -12.07912   12.10602  -14.84415
       O   -11.66438   12.35846  -14.04107
      H1   -11.81230   13.33663  -14.02762
       H   -16.00850   19.65874  -15.38576
       O   -16.26394   19.76877  -14.48916
      H1   -16.31380   18.83611  -14.22672
       H   -13.23552   10.71161  -15.68384
       O   -13.65291   11.45930  -16.16295
      H1   -13.41766   11.09458  -17.00831
       H    -1.25243   15.80580  -11.56186
       O    -2.13767   15.99889  -11.37576
      H1    -2.15269   15.98805  -10.38587
       H   -10.44717   17.07240   -9.97796
       O   -10.73729   17.03522  -10.91372
      H1   -11.67491   17.19819  -10.89053
       H    -7.83529   13.90721   -7.38711
       O    -8.73145   14.03875   -7.64111
      H1    -8.99532   14.80463   -7.14542
       H    -8.52378   14.69745  -16.40968
       O    -8.39691   15.24238  -17.23952
      H1    -7.43995   15.07143  -17.40418
       H   -18.47830   18.55129  -10.86882
       O   -17.87567   18.33286  -10.08512
      H1   -18.12102   19.04404   -9.38431
       H    -6.72665   12.76288  -12.97907
       O    -6.69890   11.77582  -12.94636
      H1    -5.91951   11.65505  -13.52145
       H    -9.72396   18.96385  -13.06047
       O   -10.15665   18.15252  -13.37326
      H1   -10.26543   17.70651  -12.52787
       H   -14.63270   13.17039   -8.88117
       O   -14.65285   13.34705   -9.88296
      H1   -14.13053   14.18454   -9.90645
       H   -10.23073   13.77842  -16.70156
       O   -10.89500   13.38074  -17.26099
      H1   -10.57994   13.63669  -18.11970
       H   -12.68139   13.64813   -6.46502
       O   -12.63461   13.89697   -7.34874
      H1   -11.75072   13.67720   -7.70910
       H   -18.14617   14.71062  -11.58515
       O   -17.79220   14.58312  -10.71703
      H1   -17.09098   13.88225  -10.85488
       H    -7.54733   17.40790  -13.27212
       O    -7.73868   17.13590  -14.17561
      H1    -8.67397   17.37193  -14.23975
       H   -16.92537   11.87141  -11.60435
       O   -16.27829   12.50693  -11.89510
      H1   -15.56238   12.50121  -11.20416
       H    -3.87610   16.18674  -15.05647
       O    -3.15591   16.66701  -14.58984
      H1    -3.33912   17.54935  -14.95355
       H   -11.94782   11.42407   -9.29047
       O   -12.22367   10.65038   -8.79774
      H1   -12.20128    9.90942   -9.43187
       H    -5.60489   15.34874  -17.82330
       O    -5.64388   14.43138  -17.51517
      H1    -5.80821   13.89181  -18.28376
       H   -14.53296   18.44847   -7.52254
       O   -14.15882   18.01569   -6.73756
      H1   -14.81953   17.25991   -6.79347
       H    -7.45619   19.01447  -11.95960
       O    -7.11850   18.11166  -11.79615
      H1    -6.22246   18.30565  -12.18886
       H   -16.76292   14.15089  -15.08671
       O   -15.89155   14.21005  -15.55372
      H1   -16.13102   14.79027  -16.24497
       H    -8.53666   18.40315   -6.60148
       O    -8.81603   18.84509   -5.74213
      H1    -8.18998   19.64892   -5.76707

