180
frame 6 | Written by MDAnalysis XYZWriter (release 2.4.3)
       H    -1.51031   15.60594   -2.24885
       O    -1.67723   16.31066   -1.61210
      H1    -0.98066   16.25121   -0.96028
       H   -14.62846   14.06777    5.72119
       O   -13.84994   14.59361    5.98390
      H1   -13.46072   14.95780    5.17320
       H   -16.07301   16.59264   -3.02433
       O   -15.60982   15.74318   -2.91451
      H1   -16.12087   15.08669   -3.43098
       H    -4.08275   16.08931   -4.59506
       O    -3.26276   15.53497   -4.50221
      H1    -3.55764   14.71868   -4.08575
       H    -6.97609   15.09601    3.53427
       O    -6.27524   15.35621    4.18026
      H1    -6.33859   16.28024    4.07402
       H    -6.02187   12.39023   -6.58486
       O    -5.23077   12.97981   -6.41440
      H1    -5.63245   13.54937   -5.75300
       H   -13.47948   19.02817   -2.92412
       O   -13.00414   18.23226   -3.30955
      H1   -12.50129   18.04414   -2.50877
       H    -6.00706   17.78090   -5.14336
       O    -5.66740   17.00602   -4.62174
      H1    -6.24767   16.30716   -4.92689
       H    -6.69538   17.01194    7.09999
       O    -5.87217   16.53586    7.03608
      H1    -5.78559   16.57175    6.04603
       H    -9.92610   11.65296    2.44505
       O    -9.56564   12.40608    2.93467
      H1    -9.31576   13.03535    2.24747
       H    -6.77775   18.12055   -0.25138
       O    -5.94748   18.44726    0.14346
      H1    -5.95521   19.35922   -0.01929
       H    -9.60087   15.65691    0.31888
       O    -8.95002   16.36531    0.31720
      H1    -8.54998   16.21244   -0.59564
       H    -2.98902   15.36967   -0.64946
       O    -3.49858   15.05020    0.14722
      H1    -3.02198   14.26904    0.33782
       H    -2.99460   18.33905    1.26037
       O    -2.09691   18.70489    1.24948
      H1    -2.17125   19.48289    0.64730
       H   -12.77005   18.81539    3.26390
       O   -12.16878   18.12207    2.88601
      H1   -11.57217   18.77919    2.58195
       H    -8.09394   17.39419   -3.13739
       O    -7.47701   17.25008   -2.43304
      H1    -6.70513   17.06403   -2.97234
       H    -2.21889   17.28321   -4.30208
       O    -1.81059   18.13733   -4.35979
      H1    -1.29877   18.08898   -5.20367
       H   -12.09104   13.06260   -2.84980
       O   -11.19619   12.92148   -2.58950
      H1   -11.05775   11.94508   -2.49001
       H    -7.65192   13.14822    1.35508
       O    -7.11803   12.39168    1.45553
      H1    -6.69917   12.50629    2.34353
       H   -18.29549   18.28366   -2.71090
       O   -17.37689   18.40155   -2.50624
      H1   -17.38751   18.21299   -1.58096
       H    -8.06289   10.09525   -0.89502
       O    -8.72750    9.44620   -0.70813
      H1    -9.13486    9.83413    0.08701
       H    -5.22067   13.82197   -2.37403
       O    -4.54102   13.35369   -2.88641
      H1    -4.16210   12.76104   -2.25529
       H    -4.62648   11.30437    0.59747
       O    -4.97721   12.00887    0.01589
      H1    -5.84844   12.23426    0.39500
       H   -13.79130   18.37995    1.29503
       O   -14.30608   18.05338    0.55788
      H1   -14.67756   18.93335    0.27554
       H    -9.27335   15.05430   -7.25424
       O    -9.03705   14.36636   -6.60379
      H1    -9.49712   14.60578   -5.77721
       H   -11.24115   15.83390   -7.92382
       O   -10.40774   16.41748   -8.04978
      H1   -10.46671   16.87641   -7.19744
       H    -3.19461   16.25957    5.13866
       O    -2.95460   16.90287    4.51980
      H1    -3.48918   16.93695    3.78701
       H    -7.98001   11.55324   -4.37721
       O    -7.38512   12.14605   -3.88606
      H1    -6.74108   11.54218   -3.53486
       H    -9.17684   12.02211    6.19753
       O    -9.84699   11.71989    5.55131
      H1    -9.59960   12.19850    4.74654
       H   -14.02199   15.26658   -2.82091
       O   -13.05546   15.08695   -2.87821
      H1   -12.73224   15.97882   -2.81398
       H    -9.41798   19.39615   -1.35003
       O    -9.93769   18.96637   -0.58285
      H1    -9.31929   18.14155   -0.57666
       H   -13.30920   10.47222   -1.24438
       O   -12.46834   10.71311   -0.76021
      H1   -12.59844   10.25741    0.05874
       H    -9.00306   17.15319    7.75612
       O    -8.37169   17.51627    7.12594
      H1    -8.50778   18.43559    7.39944
       H   -17.41711   14.26154   -1.85025
       O   -17.12487   14.42651   -0.92585
      H1   -16.26326   14.81886   -1.01088
       H    -7.39900   14.71566   -5.82866
       O    -6.82081   14.64240   -5.06763
      H1    -7.13168   13.76417   -4.87210
       H   -12.75403   15.28273    2.89220
       O   -12.24853   15.55686    3.68386
      H1   -12.32638   16.52250    3.66314
       H    -5.29342   12.50215    4.68670
       O    -6.11590   12.22550    4.05448
      H1    -6.83093   12.82170    4.37290
       H   -12.31943   17.27337   -5.68266
       O   -11.62597   17.95466   -5.43351
      H1   -12.00103   18.28387   -4.58072
       H    -8.98239   14.72027   -3.23143
       O    -9.53176   14.81086   -4.03003
      H1   -10.31255   14.36464   -3.69737
       H    -8.97918   14.89334    2.92173
       O    -8.26828   14.66808    2.31170
      H1    -8.31763   15.41696    1.62039
       H    -4.57313   18.52243   -1.26363
       O    -3.81218   18.49570   -1.91280
      H1    -3.55233   17.61150   -1.74984
       H    -5.61147   11.09657   -1.22815
       O    -6.02036   10.73479   -2.09121
      H1    -5.38944   10.04166   -2.39043
       H   -16.82912   17.91075    2.97827
       O   -16.98926   18.51370    2.26555
      H1   -17.26875   17.96177    1.48998
       H   -14.65932   16.19918    0.14481
       O   -14.46385   15.33445   -0.25973
      H1   -14.13203   15.58423   -1.14356
       H    -7.18661   14.21549    6.49095
       O    -7.73415   13.54354    6.13825
      H1    -8.39049   14.03313    5.62903
       H   -10.07957   15.49862    5.85707
       O    -9.69004   15.34352    4.99822
      H1   -10.55228   15.34713    4.52641
       H   -10.87155   13.72087   -0.94862
       O   -10.84313   14.41823   -0.28725
      H1   -11.41222   15.09621   -0.67952
       H   -12.28261   14.09193   -7.10234
       O   -12.04002   14.00606   -8.07723
      H1   -11.53462   13.16404   -8.07399
       H    -3.31560   19.06303   -5.33480
       O    -3.65358   19.19150   -6.30476
      H1    -4.60082   19.34928   -6.01478
       H    -5.28269   17.27513    1.41061
       O    -4.52003   16.98963    1.91229
      H1    -4.32721   16.22392    1.24176
       H   -13.43131   11.69813    1.63654
       O   -13.81105   10.82786    1.70642
      H1   -13.54331   10.47950    2.52029
       H   -13.88040   16.84990   -7.11039
       O   -13.31560   16.22609   -6.63751
      H1   -14.08180   15.69337   -6.23997
       H    -9.69040   18.46668    5.16882
       O    -9.22912   18.23914    4.31449
      H1    -9.17661   17.25451    4.42559
       H    -8.09162   13.34470   -1.26466
       O    -7.80233   14.02299   -1.90234
      H1    -7.38661   13.42027   -2.53326
       H   -13.68449   14.36827    0.98495
       O   -13.04825   13.91580    1.56495
      H1   -12.30241   13.88326    0.96750
       H   -11.30118   10.47223   -2.16553
       O   -10.58280   10.20658   -2.71809
      H1   -10.05639    9.78240   -1.97943
       H   -12.71733   17.51958   -0.36206
       O   -12.05619   17.25768   -1.11822
      H1   -11.25831   17.81357   -0.88304
       H   -12.95778   14.10715   -4.48579
       O   -12.75905   13.66195   -5.33399
      H1   -12.99445   12.74001   -5.01604
       H    -6.23481   18.50347    3.25361
       O    -6.44416   18.20132    4.17791
      H1    -7.42442   18.32303    4.28620
       H    -9.47255   16.70908   -4.23224
       O    -9.09026   17.55077   -4.49551
      H1    -9.90811   17.89116   -4.97586

