180
frame 11 | Written by MDAnalysis XYZWriter (release 2.4.3)
       H   -15.28534    7.19458   -1.61966
       O   -15.50292    6.33409   -1.09842
      H1   -15.72942    5.71797   -1.75933
       H   -16.49824    7.60687    9.78508
       O   -16.63276    7.86425   10.72104
      H1   -17.15528    8.70922   10.65200
       H   -18.48031   -1.55792    8.63263
       O   -18.87502   -1.77511    7.76246
      H1   -18.89180   -0.86535    7.33925
       H   -17.80980    2.50992    9.68850
       O   -18.52940    2.43046    9.08347
      H1   -18.93255    3.27458    9.15756
       H   -13.18996    7.69347   11.57842
       O   -14.00104    7.72120   12.11836
      H1   -14.63868    7.79426   11.36722
       H   -16.18448    1.26359   10.94270
       O   -16.31893    2.17913   10.72594
      H1   -15.42515    2.54508   10.82103
       H   -13.49787    3.33364    3.17090
       O   -14.19260    4.01954    3.19325
      H1   -13.90523    4.70189    2.52298
       H   -16.56393   11.50662    7.59352
       O   -17.27135   11.52476    6.89027
      H1   -17.68279   12.42297    7.04230
       H   -12.21797    5.32593    5.33184
       O   -12.98106    4.77043    5.51073
      H1   -13.38505    4.65935    4.59737
       H   -19.56269   10.05875    8.42779
       O   -18.88230   10.67917    8.66145
      H1   -18.39702   10.72372    7.74318
       H   -17.14109   14.93973    3.58108
       O   -16.79527   14.57613    4.37828
      H1   -17.63491   14.37510    4.84423
       H   -10.47362   11.18694    8.45668
       O   -10.75657   10.31251    8.73184
      H1   -10.92577    9.83669    7.89007
       H   -12.44492    1.76726    6.50272
       O   -11.74657    2.27320    6.00435
      H1   -12.23471    3.01634    5.70003
       H   -15.62163    7.12119    5.87090
       O   -15.67677    8.02147    6.22159
      H1   -15.99114    8.49251    5.42654
       H   -11.64136    7.26678    9.88518
       O   -12.07833    8.11817    9.75771
      H1   -11.40942    8.78149    9.58270
       H   -18.35368    1.66871   12.27882
       O   -18.83538    0.86881   12.56722
      H1   -18.85489    0.36418   11.81341
       H   -17.05801   10.42521    5.03558
       O   -17.38701    9.52688    4.83821
      H1   -17.04240    9.38218    3.93493
       H   -17.79153   11.05007   10.49659
       O   -17.02895   10.79066   11.01461
      H1   -16.33931   11.32423   10.51579
       H   -17.89200    7.25828    5.78960
       O   -18.54745    7.04764    6.44748
      H1   -18.98890    6.22304    6.14342
       H   -16.98092    3.65862   12.55400
       O   -17.85148    3.44595   12.89497
      H1   -17.91295    3.79683   13.83362
       H   -13.09497    7.24236    8.35783
       O   -13.44786    6.48817    7.86555
      H1   -13.10088    6.75371    6.95122
       H   -16.60263    6.32194   14.08804
       O   -16.90084    6.52878   14.96076
      H1   -16.12556    6.49536   15.53703
       H   -15.30078    3.38427    1.90411
       O   -15.52675    3.09462    1.03036
      H1   -16.31677    3.67498    0.82162
       H   -13.51322    3.55683   10.17884
       O   -13.97123    3.35175   11.02865
      H1   -14.47667    4.16910   11.15050
       H   -14.29545    4.20996    7.33768
       O   -15.03685    3.85642    7.85978
      H1   -15.44195    4.69265    8.19733
       H   -13.52872   11.41678    2.44117
       O   -13.12335   10.52561    2.37580
      H1   -13.94466    9.94932    2.21430
       H   -18.24640    2.98756    1.17918
       O   -18.23365    3.93260    0.98423
      H1   -18.96527    4.21338    1.53792
       H   -14.22573   11.40507    7.59453
       O   -14.70570   10.62468    7.93516
      H1   -14.53056    9.88695    7.36692
       H   -17.67261    0.66297    0.53751
       O   -18.28536    1.11484    1.16844
      H1   -17.78216    0.93886    1.98588
       H   -15.99408    6.35134    0.65914
       O   -15.65247    6.43981    1.58420
      H1   -14.74123    6.24000    1.40191
       H   -18.11055    2.27563    3.91167
       O   -17.24211    1.80361    3.85598
      H1   -17.35588    0.99395    4.38731
       H   -14.84436    6.19480   12.75797
       O   -15.33471    5.33815   12.82717
      H1   -15.09844    5.05108   13.73594
       H   -16.83181    6.40861    7.77137
       O   -16.27865    6.18573    8.55297
      H1   -15.41425    6.52906    8.21867
       H   -16.25418   12.32606   12.69553
       O   -16.85695   12.51501   13.44683
      H1   -17.70604   12.12740   13.09495
       H   -14.31933   10.44004    5.06283
       O   -13.36047   10.53395    5.21611
      H1   -13.06359   10.65079    4.32260
       H   -16.36240   13.94923    0.51616
       O   -16.64013   13.26980    1.20348
      H1   -15.78211   13.12067    1.58835
       H   -16.71547    5.08667    5.17718
       O   -16.60452    5.92802    4.77618
      H1   -16.64195    5.69894    3.83531
       H   -14.90834    0.11176    4.36290
       O   -14.66842    0.86909    3.76831
      H1   -15.46455    1.38154    3.65649
       H   -17.65163   10.32168    0.98587
       O   -17.63823   10.73935    1.89295
      H1   -17.22813   11.59322    1.63753
       H   -15.71193    8.13415    2.05392
       O   -15.67537    9.04224    2.34658
      H1   -16.50253    9.48658    2.02538
       H   -10.00973    5.46664    5.14290
       O   -10.20814    5.67423    6.09758
      H1   -10.46054    6.64776    6.13310
       H   -15.38723    1.93758    8.15708
       O   -15.72119    1.07951    7.77172
      H1   -15.03667    0.87581    7.11771
       H   -18.46486    1.37677    7.50723
       O   -18.96016    0.87544    6.81003
      H1   -19.82891    1.15539    7.07228
       H   -16.47712    9.06129   -0.84629
       O   -17.31421    9.24131   -0.41674
      H1   -17.64318    8.30284   -0.25420
       H   -11.83045    8.28645    2.14680
       O   -11.47045    7.53392    2.63626
      H1   -12.02836    7.56756    3.44025
       H   -12.40290    4.74918    8.45224
       O   -12.16580    3.83459    8.64327
      H1   -11.84854    3.55073    7.76906
       H   -17.20036   13.17692    9.94332
       O   -16.25917   13.32207    9.72923
      H1   -15.90626   13.90746   10.38120
       H   -13.00957    8.52816    5.30488
       O   -13.17572    7.65763    5.06047
      H1   -14.06812    7.49032    5.30441
       H   -13.71275   13.68342    2.75122
       O   -14.34134   12.94717    2.68497
      H1   -14.74135   12.83155    3.59329
       H   -10.38893    8.92098    6.17868
       O   -10.50784    8.26677    6.88831
      H1    -9.63165    8.10947    7.29132
       H   -17.69496    6.87643   11.77126
       O   -18.34261    6.51070   12.38609
      H1   -18.26430    5.54192   12.26723
       H   -19.38471   14.12777    6.15175
       O   -18.60909   13.82800    6.57923
      H1   -18.26553   14.65903    6.91612
       H   -12.68871    6.24488    1.71520
       O   -13.26734    5.52793    1.36198
      H1   -12.60188    5.02516    0.88395
       H   -18.14034    5.59065    0.32674
       O   -18.19908    6.56867    0.27358
      H1   -19.13441    6.65764    0.01212
       H   -13.72116   13.82134    7.00252
       O   -13.24006   13.11851    7.46078
      H1   -12.53367   12.92237    6.73777
       H   -13.44306    9.88321   10.65069
       O   -14.01714   10.70590   10.61217
      H1   -13.98654   10.65157    9.66969
       H   -18.32755    8.32241   13.27804
       O   -18.58547    9.16227   13.71163
      H1   -18.95487    9.75222   13.04990
       H   -16.34986    3.52413    6.54744
       O   -17.13050    3.43747    6.01905
      H1   -16.85667    2.84125    5.34682
       H   -16.35916   12.88850    4.52674
       O   -15.89272   12.10125    4.74360
      H1   -16.02228   12.01278    5.72015
       H   -17.39232   -0.96172    5.39536
       O   -16.61454   -0.47761    5.53362
      H1   -16.85190    0.18233    6.25701

