180
frame 12 | Written by MDAnalysis XYZWriter (release 2.4.3)
       H    -1.60997   -8.70220  -10.89603
       O    -1.95831   -7.89878  -11.24547
      H1    -1.85650   -7.34235  -10.41353
       H    -2.02429   -3.03218  -12.31549
       O    -2.64110   -2.52360  -12.90358
      H1    -2.52383   -1.59995  -12.56580
       H     4.73234    0.45187   -8.58996
       O     4.53181    1.40497   -8.70454
      H1     3.82454    1.27525   -9.35634
       H    -1.20368   -2.03621   -8.20068
       O    -0.25569   -2.00577   -8.07274
      H1     0.06136   -2.49020   -8.90221
       H     3.00360   -1.80988  -11.52851
       O     2.95826   -2.01305  -12.45258
      H1     3.83644   -1.85996  -12.82426
       H     5.06689   -5.11814   -9.45196
       O     6.05428   -5.12317   -9.73470
      H1     6.00617   -4.24661  -10.14667
       H    -3.69104  -10.30625   -7.83911
       O    -4.10860  -10.92383   -7.15842
      H1    -4.05190  -10.59770   -6.25986
       H     2.85899   -3.44287  -10.32005
       O     2.49960   -2.71002   -9.85122
      H1     3.18925   -2.09412   -9.56081
       H     5.44358   -0.41924  -13.32222
       O     5.43921   -1.39324  -13.45558
      H1     6.09152   -1.78606  -12.82178
       H     0.58309   -1.89009  -11.90780
       O     0.35302   -1.94351  -10.99077
      H1     1.30195   -2.11054  -10.55957
       H     1.73593    0.52830  -10.13968
       O     2.60019    0.90200  -10.45648
      H1     2.36144    0.98523  -11.39653
       H     5.04200   -4.56952   -6.29964
       O     5.94232   -4.56084   -5.92534
      H1     6.30673   -4.14272   -6.72444
       H     3.71111   -6.88569   -5.74246
       O     4.06411   -7.36844   -6.49504
      H1     3.79966   -8.29164   -6.37814
       H     3.23499   -5.03906   -3.91795
       O     2.81864   -5.32315   -4.78076
      H1     2.28909   -6.07689   -4.46086
       H    -1.24652   -5.41010   -9.95687
       O    -1.39303   -6.19144   -9.36241
      H1    -2.31235   -6.00488   -9.02973
       H     6.06600   -7.69860   -4.07573
       O     5.63630   -7.99949   -3.21326
      H1     5.48172   -7.10885   -2.84107
       H    -0.14202   -0.59418   -9.26827
       O     0.15195    0.39832   -9.23886
      H1    -0.45291    0.87012   -9.79643
       H     2.65577   -1.40921   -6.68812
       O     3.51448   -1.81634   -6.71691
      H1     3.70469   -1.88499   -5.76846
       H     2.26267   -7.07305   -9.94695
       O     1.76102   -6.26909  -10.21969
      H1     1.49918   -6.00132   -9.32560
       H    -0.44795   -7.06746  -12.27323
       O     0.19593   -6.40114  -12.45744
      H1     0.74589   -6.43807  -11.65610
       H     4.50518   -6.90503  -14.57503
       O     4.67860   -7.29009  -13.70454
      H1     5.52724   -7.73501  -13.90599
       H    -0.50001  -11.04610   -6.54978
       O    -0.89995  -11.01229   -7.43842
      H1    -0.36759  -11.72944   -7.90034
       H     2.30050  -10.03393   -9.37703
       O     1.51678  -10.60555   -9.27067
      H1     1.11249  -10.58457  -10.15448
       H     3.15088   -4.79212  -12.52796
       O     3.39636   -4.59542  -11.60621
      H1     2.83864   -5.32759  -11.21670
       H    -3.16463   -8.36803  -12.27001
       O    -3.97308   -8.76392  -12.64295
      H1    -4.13942   -8.11469  -13.35521
       H    -1.87400   -3.06726   -4.40194
       O    -2.16108   -3.82310   -3.90605
      H1    -3.08735   -3.89206   -4.10298
       H     7.45491   -2.85855  -11.32121
       O     6.48509   -2.84523  -11.27140
      H1     6.28210   -3.64305  -11.83059
       H    -0.47710   -3.61207  -11.37533
       O    -1.05798   -4.40642  -11.37081
      H1    -0.59500   -5.00430  -11.98008
       H     2.90514   -7.49395  -13.94211
       O     2.01598   -7.86739  -13.98152
      H1     1.42848   -7.13573  -13.61421
       H    -2.80163   -0.99529  -10.20475
       O    -3.11326   -1.66033   -9.60735
      H1    -3.58765   -1.17795   -8.94167
       H     8.53206   -6.94904   -7.90567
       O     8.97873   -6.39112   -7.24529
      H1     9.64769   -5.86191   -7.73263
       H     2.17665  -10.26145   -6.11380
       O     1.56555   -9.52684   -6.00160
      H1     0.99917   -9.67511   -6.81434
       H     7.02408   -7.02378   -9.50914
       O     7.87473   -7.56812   -9.49546
      H1     7.68336   -8.24603   -8.85865
       H     0.92048   -9.17294  -16.80970
       O     0.52546   -9.12329  -15.89521
      H1     1.10144   -8.44995  -15.37729
       H    -0.00375    1.78379   -6.62228
       O    -0.53133    1.00474   -6.84569
      H1    -0.20462    0.71388   -7.72654
       H    -6.00775   -4.80288   -9.79642
       O    -5.52194   -4.30275   -9.11544
      H1    -5.06429   -3.60577   -9.55272
       H    -1.37002   -4.92397   -5.26734
       O    -1.51152   -5.47052   -6.08587
      H1    -0.64034   -5.48417   -6.54744
       H    -1.59159   -8.54592   -7.14636
       O    -1.16660   -8.30400   -6.31971
      H1    -1.51643   -7.43429   -6.23349
       H    -0.05173   -6.27308   -3.72494
       O    -0.54161   -6.01108   -2.92220
      H1    -1.02932   -5.21519   -3.26358
       H     1.44445   -8.21627   -4.72277
       O     1.72607   -7.52197   -4.06970
      H1     2.17270   -8.00478   -3.39908
       H     7.08204   -4.13445   -8.58407
       O     7.15745   -3.39283   -7.98051
      H1     7.88340   -3.64357   -7.38715
       H    -0.21640   -6.12711   -8.28551
       O     0.53820   -6.12042   -7.70775
      H1     0.47488   -7.01653   -7.30431
       H     1.09626   -1.69938   -5.23413
       O     1.22828   -0.75235   -5.51947
      H1     0.38117   -0.69438   -6.04197
       H     0.86998   -2.88524   -3.30469
       O     0.89118   -3.01075   -4.27292
      H1     1.72739   -3.50312   -4.48186
       H     5.90760   -5.44753  -13.11472
       O     6.57786   -4.78066  -13.01712
      H1     6.53321   -4.35432  -13.84651
       H     3.23685   -5.11747   -7.48731
       O     3.81845   -4.50176   -7.92732
      H1     3.20900   -3.81800   -8.32183
       H    -0.16270  -10.45551  -12.20318
       O    -0.78673  -10.52630  -11.51357
      H1    -0.96491  -11.45464  -11.58177
       H    -4.62693   -7.97126  -11.00348
       O    -5.05941   -8.13622  -10.14040
      H1    -4.41961   -7.82010   -9.54863
       H     4.21091   -7.62577   -8.18229
       O     3.98200   -7.89942   -9.07684
      H1     4.81691   -8.32751   -9.33211
       H     5.30910   -2.05693   -9.39876
       O     4.74571   -1.30689   -9.09532
      H1     4.52451   -1.55430   -8.19137
       H     2.95138  -12.14099   -6.24869
       O     3.44947  -11.44299   -5.83362
      H1     3.16855  -11.45465   -4.92757
       H    -2.81213   -9.67175   -9.75076
       O    -2.53847   -9.21122   -8.94759
      H1    -1.98098   -9.89315   -8.54134
       H    -4.33144   -5.19461   -8.09496
       O    -3.61750   -5.78225   -7.84786
      H1    -3.23271   -5.42700   -7.01978
       H     4.10184   -8.90941  -12.45455
       O     3.43630   -9.57049  -12.37282
      H1     2.80576   -9.07098  -12.89749
       H     6.65035   -6.06301   -5.46555
       O     7.05850   -6.82003   -4.99788
      H1     7.50677   -7.30199   -5.66254
       H    -1.27381   -9.69785  -15.53979
       O    -2.11733   -9.66226  -15.01281
      H1    -2.07759   -8.88423  -14.45552
       H     3.28930   -4.88228  -15.79340
       O     2.75984   -5.44784  -15.23215
      H1     1.89241   -5.14966  -15.50773
       H     3.80627  -12.82777  -10.85369
       O     4.29824  -12.10997  -11.27634
      H1     3.64804  -11.49825  -11.65777
       H     5.04896  -10.53403  -10.28250
       O     5.64324   -9.99281   -9.75093
      H1     5.48867  -10.30340   -8.87094
       H     1.04496   -1.99330  -14.78493
       O     0.82662   -2.55552  -14.02377
      H1     1.68330   -2.70328  -13.60427

