180
frame 10 | Written by MDAnalysis XYZWriter (release 2.4.3)
       H     4.31171   17.55337   18.60783
       O     5.09728   17.19932   18.14909
      H1     4.77886   17.34715   17.26661
       H     7.42270   10.46547   12.56894
       O     7.22807    9.49202   12.60362
      H1     8.09221    9.02281   12.84807
       H     8.69542   12.31155   19.10398
       O     7.87556   11.77023   18.92862
      H1     7.45322   11.97110   19.74137
       H     3.33080    8.62985   14.49130
       O     2.37379    8.48846   14.53901
      H1     2.23466    7.51895   14.27391
       H    13.36800    9.77132   16.89865
       O    13.82460   10.49853   17.36205
      H1    14.70913   10.29473   17.11503
       H     9.86089   13.70110   11.34540
       O    10.10332   13.63166   10.39427
      H1     9.15659   13.54525   10.00642
       H    10.37404   10.06063   10.66934
       O     9.76181    9.60069   11.30614
      H1     8.97926    9.63479   10.69849
       H    12.17389   13.09643   17.99428
       O    13.15357   13.23660   18.11046
      H1    13.22187   14.17930   18.36083
       H     8.61968   10.49830   16.09461
       O     8.26321   11.42015   16.15932
      H1     7.84681   11.21279   17.03262
       H     4.39510   17.74484   13.71607
       O     4.38258   17.88557   14.68980
      H1     5.07569   18.57424   14.86933
       H     2.63515   10.38052   13.64512
       O     2.92025   11.32383   13.53388
      H1     2.39362   11.67814   14.27778
       H     4.30578   12.97832   17.06196
       O     5.07815   12.39728   17.21882
      H1     5.36614   12.33169   16.34258
       H     4.13710   11.38416   11.54718
       O     4.83786   11.18878   10.89721
      H1     4.52599   10.25996   10.70007
       H    11.16749    6.48854   13.85155
       O    10.42963    6.99766   14.29344
      H1    10.69815    7.94165   14.11218
       H     6.95249   14.92482   18.81664
       O     7.65610   15.22188   19.35233
      H1     8.46052   14.83034   18.91651
       H    10.30972   18.39731   15.32148
       O    10.09682   17.45349   15.51762
      H1    10.93701   17.19747   15.90244
       H     9.40183   10.55615   19.32528
       O    10.21805   10.16838   18.89044
      H1    10.53093   10.94032   18.43543
       H    11.68511   18.71379   13.31705
       O    11.88826   18.53634   12.39607
      H1    12.15044   17.64887   12.24949
       H    11.80885    8.36071   17.10926
       O    12.09958    8.79445   16.33219
      H1    11.32716    8.93598   15.76694
       H     5.40307   17.17670   11.38359
       O     5.32510   17.97235   11.95827
      H1     5.99686   18.51636   11.55513
       H    15.51921   13.34091   11.87063
       O    14.58062   13.38646   11.68686
      H1    14.61875   13.37847   10.67478
       H     1.71713   15.39658   14.78048
       O     2.47206   15.53642   14.16298
      H1     2.11715   16.24402   13.65522
       H    10.71523    9.66488   12.92520
       O    11.09385    9.53597   13.78688
      H1    11.76964   10.23238   13.91203
       H    13.07638   11.44995   13.54974
       O    13.26662   10.97853   12.66780
      H1    13.74180   11.61145   12.10696
       H    12.60596   16.38549   10.39340
       O    11.65592   16.12473   10.42196
      H1    11.64491   15.19723   10.47653
       H    10.22312   16.66320   11.43810
       O     9.29969   16.83299   11.69224
      H1     9.37736   17.32323   12.54440
       H    11.61812   14.58860   15.38922
       O    11.29668   14.05047   14.66296
      H1    10.50098   14.56253   14.39711
       H     8.85152    7.29227   11.26916
       O     8.46750    6.89442   12.10522
      H1     9.07555    7.23685   12.78626
       H     2.08079   12.75121   16.62494
       O     1.70602   12.04082   16.09041
      H1     1.48980   11.36338   16.76392
       H    12.48927    7.61320   12.50723
       O    13.26807    8.04946   12.15046
      H1    12.96521    8.97586   12.25552
       H     8.37049   13.71697   12.48944
       O     8.99565   14.34826   12.77867
      H1     8.69864   15.12038   12.30986
       H    13.07066   16.19444   17.57753
       O    13.03614   15.88702   18.45567
      H1    13.91748   15.97583   18.85625
       H     7.03205    8.83535   16.08245
       O     6.99310    8.54461   17.06719
      H1     7.83097    8.08416   17.18908
       H    11.18451   12.29202   16.29915
       O    10.55013   12.46656   17.05866
      H1     9.68030   12.14426   16.63805
       H     2.84447   14.62806   12.84674
       O     3.11500   14.18341   11.96366
      H1     3.52022   14.96554   11.46490
       H     4.97657   14.85254   18.68087
       O     5.38137   14.07883   19.08514
      H1     5.36350   13.42333   18.32689
       H     9.25842   17.20666   18.03293
       O     9.34755   18.09410   18.34800
      H1     9.30452   18.72228   17.64229
       H     9.59831   18.83109    9.36084
       O     9.14727   17.98871    9.28606
      H1     9.17813   17.65412   10.23677
       H     6.26645   17.25478    8.95579
       O     6.47514   18.20645    9.02428
      H1     7.41619   18.13309    8.77699
       H     9.10477   15.11916   16.73856
       O     9.66211   15.17098   17.53845
      H1    10.22612   14.36140   17.49254
       H     4.61373   10.31535   13.93970
       O     4.84293    9.39840   14.06938
      H1     5.61301    9.24492   13.48205
       H     4.84101   16.12212   15.43132
       O     5.21802   15.22892   15.41317
      H1     6.17479   15.25060   15.59751
       H     7.66009   18.62675   18.56308
       O     6.85273   19.01756   18.18581
      H1     6.17431   18.28592   18.26712
       H     2.98831   18.43056   15.54170
       O     2.37600   18.97188   16.03573
      H1     2.85143   19.84106   16.02349
       H    12.97331   17.64108   16.31147
       O    12.74028   16.78369   15.96821
      H1    13.54348   16.51658   15.44220
       H     4.35936   12.32623   13.91334
       O     5.29881   12.48536   14.17249
      H1     5.19797   13.38764   14.41211
       H    11.73833   19.47079   17.50852
       O    12.72073   19.30132   17.54177
      H1    12.82117   18.95125   18.43127
       H     2.35066   13.19291   18.88710
       O     2.64067   13.65035   18.08352
      H1     2.04600   14.40672   18.11558
       H    12.22146   12.59777   14.68363
       O    12.37949   11.70088   15.09585
      H1    13.16662   11.89925   15.68551
       H     2.65504    9.76746   18.25945
       O     2.79390   10.61198   18.70672
      H1     3.54030   10.91410   18.25529
       H     7.27736   13.22379    8.74391
       O     7.60442   13.77775    9.47297
      H1     8.17038   14.35396    8.96248
       H     5.14596   15.06666    9.39632
       O     5.26327   15.64941   10.18616
      H1     6.11578   15.28087   10.43074
       H     6.79747   10.56284    9.43533
       O     7.30240    9.84384    9.91577
      H1     6.73074    9.83681   10.69786
       H     6.10809    8.11971   18.75964
       O     5.99437    7.76431   19.62661
      H1     6.95650    7.64658   19.86784
       H    14.15973   13.18910   16.74899
       O    14.64688   13.07012   15.88613
      H1    14.56357   13.97775   15.53211
       H    13.71977   15.19061   13.66086
       O    14.20120   15.24613   14.45704
      H1    15.06127   15.50099   14.06857
       H     6.76207   12.22968   11.66229
       O     7.32978   12.21146   12.49104
      H1     6.59178   12.31260   13.18253
       H    10.63060   11.96970    9.52527
       O    10.91052   11.12197    9.16896
      H1    11.83141   11.35005    8.89447
       H     8.15055   13.81242   14.72838
       O     7.86244   14.10857   15.61965
      H1     7.92888   13.32426   16.12034
       H     9.57163    8.49131   18.17839
       O     9.53420    7.70340   17.57611
      H1     9.67814    6.95133   18.19635

