180
frame 9 | Written by MDAnalysis XYZWriter (release 2.4.3)
       H    15.62811   18.46019   -2.86616
       O    16.36006   19.06921   -2.74243
      H1    16.81621   18.45137   -2.08598
       H    15.89260   10.66696   -7.23619
       O    15.65802   11.62452   -7.27270
      H1    15.02328   11.68752   -8.04766
       H     8.84725   14.47714   -6.05369
       O     9.62423   15.03948   -5.85868
      H1     9.38312   15.40586   -5.02038
       H    12.71306   15.26824   -1.09498
       O    11.97045   15.38670   -0.44673
      H1    11.45864   16.00705   -0.91253
       H    13.28362   19.03893   -6.30578
       O    13.91919   18.58882   -5.67562
      H1    13.37287   17.75374   -5.71511
       H    15.09025   18.34064   -6.95848
       O    15.62436   18.24175   -7.75905
      H1    16.19312   17.45871   -7.53431
       H     4.69659   11.82233   -2.67023
       O     5.52776   11.56977   -3.06889
      H1     5.35646   11.58663   -4.07175
       H    15.86913   10.50620   -2.58216
       O    16.32008    9.68309   -2.49572
      H1    16.72107    9.69535   -3.36644
       H     9.38565   16.84126    0.78573
       O     9.49283   17.19827   -0.11889
      H1     8.97998   18.04200    0.00635
       H    13.53547    6.19347   -5.46610
       O    12.73230    6.55108   -5.04066
      H1    13.01641    7.37293   -4.63376
       H     9.77347   12.29935    1.48038
       O     8.94712   11.99358    1.14954
      H1     8.36535   12.73225    1.08388
       H    15.41539    8.28482   -5.55606
       O    14.88967    9.03484   -5.92032
      H1    14.54624    9.48851   -5.09902
       H    14.07621   15.76784   -2.60726
       O    13.62204   14.90924   -2.36216
      H1    13.11729   14.85930   -3.20617
       H    12.37359   17.89913    0.98977
       O    12.62987   18.66645    0.44568
      H1    13.20546   19.10542    1.08517
       H    10.72329   11.87275   -2.12486
       O    11.62326   11.66352   -2.55699
      H1    12.17180   11.66757   -1.77965
       H    11.07433   11.54222   -9.08365
       O    10.52790   11.99652   -8.42568
      H1    11.08635   12.80141   -8.30553
       H     6.44610   10.51965   -0.29351
       O     6.73200   10.09153   -1.13782
      H1     6.19442   10.70090   -1.73459
       H    10.32185   15.82227   -8.72583
       O    10.78138   15.10150   -8.35621
      H1    10.23776   15.06992   -7.52193
       H    15.27487   12.20180    0.30866
       O    16.05441   12.77438    0.36152
      H1    16.20954   12.98423   -0.57927
       H    12.74342   10.20741   -3.60460
       O    13.11135    9.34875   -3.73090
      H1    13.19030    8.94769   -2.83253
       H     8.33785   14.44156   -1.78896
       O     7.85258   15.24645   -1.88668
      H1     8.30413   15.88117   -1.19719
       H    14.41469   13.02789   -2.48116
       O    14.94027   12.30404   -2.82752
      H1    14.59073   12.26746   -3.73176
       H    13.37028    8.65360   -6.71554
       O    12.82100    8.47654   -7.50834
      H1    12.54378    7.59898   -7.18567
       H     7.67893   19.36453   -3.39903
       O     8.02788   19.04839   -2.54523
      H1     8.55338   18.31600   -2.76857
       H     9.07338   14.63392    3.21086
       O     9.61462   15.23701    2.73681
      H1    10.09274   15.78480    3.34913
       H    10.96045   14.00593   -4.81905
       O    11.76001   13.93855   -4.31422
      H1    11.51095   13.26121   -3.66436
       H    15.61834    8.17582    1.83822
       O    14.72359    8.56549    1.90359
      H1    14.78195    9.13690    1.10107
       H     8.86634    8.40988   -8.78235
       O     9.03768    9.38871   -8.77392
      H1     9.46382    9.56500   -7.89980
       H    17.40073   13.56914   -4.44929
       O    17.25291   13.59762   -3.47496
      H1    16.33633   13.29596   -3.39793
       H    12.05053   12.56076    2.32966
       O    11.52895   11.73738    2.29461
      H1    12.13148   11.15057    2.84058
       H     5.63492   11.43785   -6.77643
       O     6.38781   11.13777   -7.28898
      H1     6.05325   10.76008   -8.12350
       H    17.01296   13.30407   -6.76202
       O    17.62547   13.63287   -6.12010
      H1    17.61394   14.53472   -6.53143
       H     8.90124   11.71758   -0.89344
       O     8.96536   11.95746   -1.83933
      H1     8.43940   11.25647   -2.32915
       H     8.57799   10.72909   -4.39481
       O     8.19008   10.06594   -3.79818
      H1     8.50610    9.24692   -4.20725
       H     4.71943   14.85412   -2.77604
       O     5.11838   15.08126   -1.94586
      H1     6.09436   15.02598   -2.03521
       H    10.42406    7.29010   -3.32593
       O    10.82393    7.84948   -2.64555
      H1    11.32518    8.50339   -3.08139
       H    12.25667   11.20904    0.63203
       O    13.06041   11.06349    0.05707
      H1    13.16942   10.12743   -0.11602
       H    11.37611   14.68860    2.25780
       O    12.29084   14.36964    2.09916
      H1    12.42140   14.70252    1.21812
       H     9.54471    8.15076   -5.86635
       O     9.03194    7.66057   -5.23704
      H1     9.45347    6.80857   -5.35391
       H     7.45258    7.99661   -6.05127
       O     6.66623    8.37262   -6.55715
      H1     6.91683    9.29336   -6.78754
       H     9.57088   17.49056   -7.16272
       O     9.94420   18.11820   -6.57894
      H1     9.97527   17.70969   -5.74739
       H     8.69426   18.90690   -5.82156
       O     7.88998   19.26143   -5.35578
      H1     7.44916   18.40792   -5.34225
       H     6.39124   15.12305   -9.95840
       O     6.58066   15.50568   -9.11777
      H1     7.11076   14.74815   -8.70268
       H    11.31647   14.80277  -10.08869
       O    11.39575   15.13815  -11.00479
      H1    10.53053   14.81229  -11.33438
       H    17.68552   16.80276   -6.22983
       O    17.10522   16.25395   -6.75795
      H1    16.41458   15.98468   -6.12189
       H    18.01321   11.60961   -1.31023
       O    18.71112   11.98580   -1.89720
      H1    18.13102   12.39526   -2.55407
       H     9.11245    8.18026   -0.96782
       O     8.25700    7.81279   -0.71095
      H1     7.68415    8.55758   -1.03825
       H    11.34936   19.00222   -7.03560
       O    12.13882   19.54275   -7.27506
      H1    12.10365   19.36032   -8.26688
       H    12.66307    7.57528   -1.00159
       O    13.47146    8.15702   -0.86876
      H1    14.14815    7.51029   -0.83971
       H     8.64423   13.37077   -8.35677
       O     7.84887   13.60392   -7.91756
      H1     7.21032   12.84503   -8.06820
       H     6.71820   14.38222    1.39791
       O     6.90045   13.62574    0.81637
      H1     6.89647   13.94561   -0.07635
       H    14.25704   14.54719   -5.38877
       O    14.61186   15.32784   -5.83176
      H1    14.13019   15.55487   -6.69434
       H     7.93439   16.91585   -9.17521
       O     8.82785   17.21655   -8.93449
      H1     8.81367   18.19069   -9.05852
       H    16.06393   16.41246   -3.41444
       O    15.17918   16.78489   -3.50007
      H1    14.98549   16.61168   -4.42790
       H    11.90530   16.03277   -7.85039
       O    12.61879   16.62575   -7.50791
      H1    12.93320   16.96200   -8.38767
       H    14.11461   12.37315  -10.01324
       O    13.88728   11.83547   -9.24476
      H1    13.88674   10.94807   -9.68950
       H    11.28416    9.70926   -6.93969
       O    10.48244    9.99390   -6.47654
      H1    10.50140   10.91441   -6.71049
       H    12.84556   12.76258   -5.19529
       O    13.54218   12.06970   -5.22321
      H1    14.07437   12.16600   -6.01301
       H    12.34894   18.42769   -2.47305
       O    11.56126   18.09860   -2.04259
      H1    11.55971   18.34909   -1.12512
       H     8.93365   16.35151   -2.93924
       O     9.41640   16.71362   -3.66841
      H1    10.21361   17.04373   -3.15464

