180
frame 10 | Written by MDAnalysis XYZWriter (release 2.4.3)
       H     4.31171   17.55337   18.60783
       O     5.09728   17.19932   18.14909
      H1     4.77886   17.34715   17.26661
       H    -2.90508   14.11125    7.76928
       O    -3.19892   14.39870    6.90548
      H1    -2.34983   14.36820    6.44760
       H     0.68229   15.88372   17.47037
       O     1.08898   16.01782   18.32750
      H1     0.45091   15.72796   18.97496
       H    -4.74422   17.31886   19.06453
       O    -5.76152   17.23655   19.05404
      H1    -6.10745   18.13517   18.71707
       H     4.39510   17.74484   13.71607
       O     4.38258   17.88557   14.68980
      H1     5.07569   18.57424   14.86933
       H    -0.97698   10.11405   11.87289
       O    -0.46354   10.52932   11.16929
      H1     0.06886    9.80599   10.71114
       H    -4.02865   12.10535   12.33114
       O    -3.22167   12.02860   12.92057
      H1    -2.64658   12.69947   12.48545
       H     2.63515   10.38052   13.64512
       O     2.92025   11.32383   13.53388
      H1     2.39362   11.67814   14.27778
       H     4.30578   12.97832   17.06196
       O     5.07815   12.39728   17.21882
      H1     5.36614   12.33169   16.34258
       H     4.13710   11.38416   11.54718
       O     4.83786   11.18878   10.89721
      H1     4.52599   10.25996   10.70007
       H    -3.63057   17.78678   10.75228
       O    -3.75126   17.74377   11.69629
      H1    -3.64224   16.74965   11.90087
       H    -5.86028   16.84515    7.48145
       O    -5.38761   16.15499    7.95414
      H1    -4.97513   15.64830    7.23646
       H    -4.80369   15.15438   12.07421
       O    -3.97513   15.18723   12.64929
      H1    -4.15791   14.86535   13.54372
       H    -0.21586   16.72152   15.31280
       O    -0.07611   15.93364   15.83473
      H1    -0.84286   15.35916   15.70753
       H    -1.01622   12.16551   19.00228
       O    -0.16063   12.57633   18.78819
      H1    -0.30896   12.85967   17.87305
       H     5.40307   17.17670   11.38359
       O     5.32510   17.97235   11.95827
      H1     5.99686   18.51636   11.55513
       H     1.71713   15.39658   14.78048
       O     2.47206   15.53642   14.16298
      H1     2.11715   16.24402   13.65522
       H    -6.45679   15.20806   10.82070
       O    -5.54757   15.04473   10.61157
      H1    -5.46912   15.54520    9.73092
       H    10.22312   16.66320   11.43810
       O     9.29969   16.83299   11.69224
      H1     9.37736   17.32323   12.54440
       H    -1.18887   15.51466    5.26576
       O    -0.61052   15.16003    5.95721
      H1    -0.18876   14.30590    5.55508
       H     2.08079   12.75121   16.62494
       O     1.70602   12.04082   16.09041
      H1     1.48980   11.36338   16.76392
       H    -2.84278   14.30940   15.94259
       O    -1.94359   14.01788   16.01068
      H1    -1.86614   13.15192   15.60830
       H     1.23286   18.81407   12.89481
       O     1.13274   17.87285   13.12159
      H1     0.26727   17.88625   13.55878
       H     8.37049   13.71697   12.48944
       O     8.99565   14.34826   12.77867
      H1     8.69864   15.12038   12.30986
       H    -4.70268   14.28872   16.74221
       O    -4.51696   14.92176   16.03393
      H1    -4.31826   15.75391   16.46288
       H     2.57131   11.79397    8.57557
       O     2.59133   12.70045    8.22541
      H1     2.20022   13.14392    9.03507
       H     2.01687   15.44614   10.31813
       O     2.30435   15.99758    9.61469
      H1     1.52831   16.17870    9.18619
       H     1.80736   17.59875   18.52203
       O     2.52534   18.26468   18.62593
      H1     2.62095   18.43013   17.66825
       H    -4.18933   12.66420   10.00802
       O    -4.91001   12.20301   10.45375
      H1    -5.32685   13.00541   10.83119
       H    -1.91639   12.93586    9.37742
       O    -2.49470   13.70338    9.62667
      H1    -1.99250   14.04600   10.46456
       H    -4.07903   17.23779    8.55131
       O    -3.44417   17.80564    8.98016
      H1    -3.78505   18.66003    9.17155
       H     5.96662   16.11684    6.67795
       O     6.86027   16.16873    6.27978
      H1     6.78021   15.56495    5.58385
       H     3.57751   16.32646    5.26490
       O     3.96803   16.20629    6.12754
      H1     3.37703   16.82700    6.53682
       H     2.84447   14.62806   12.84674
       O     3.11500   14.18341   11.96366
      H1     3.52022   14.96554   11.46490
       H     4.97657   14.85254   18.68087
       O     5.38137   14.07883   19.08514
      H1     5.36350   13.42333   18.32689
       H     9.59831   18.83109    9.36084
       O     9.14727   17.98871    9.28606
      H1     9.17813   17.65412   10.23677
       H     6.26645   17.25478    8.95579
       O     6.47514   18.20645    9.02428
      H1     7.41619   18.13309    8.77699
       H     1.69190   13.31887   11.40683
       O     0.88675   13.02488   10.92035
      H1     0.70212   12.12092   11.20863
       H    -4.14847   13.93816   19.69048
       O    -3.84923   14.29806   18.85368
      H1    -2.91450   14.12968   18.89501
       H     1.57496   18.96918    9.43397
       O     2.44263   18.99813    9.94894
      H1     2.74776   18.06881    9.87143
       H     4.84101   16.12212   15.43132
       O     5.21802   15.22892   15.41317
      H1     6.17479   15.25060   15.59751
       H     7.66009   18.62675   18.56308
       O     6.85273   19.01756   18.18581
      H1     6.17431   18.28592   18.26712
       H    -1.61223   14.55630   13.15666
       O    -1.43208   14.12427   12.30986
      H1    -0.43530   13.88802   12.27637
       H     2.98831   18.43056   15.54170
       O     2.37600   18.97188   16.03573
      H1     2.85143   19.84106   16.02349
       H    -1.03447   16.00474    9.36879
       O    -0.52638   16.74581    8.94664
      H1    -0.33448   16.32310    8.04187
       H    -6.31447   18.15576   15.02409
       O    -5.49374   18.18393   14.49388
      H1    -4.80209   17.87461   15.15659
       H     0.55539   16.48897    6.31378
       O     0.89219   17.35888    6.48317
      H1     0.01720   17.76827    6.51310
       H    -0.19055   18.38918    8.90907
       O    -0.00887   19.36365    8.97178
      H1     0.09872   19.72488    8.02652
       H     4.27019   14.93610    7.15266
       O     4.79270   14.30936    7.75056
      H1     4.06001   13.64345    7.92373
       H    -6.73373   16.81385   13.87986
       O    -7.45363   16.18986   13.62296
      H1    -8.25488   16.72965   13.91922
       H     4.35936   12.32623   13.91334
       O     5.29881   12.48536   14.17249
      H1     5.19797   13.38764   14.41211
       H    -2.35840   18.21636    7.63752
       O    -2.08165   18.44681    6.73122
      H1    -2.68467   17.94036    6.19785
       H     2.35066   13.19291   18.88710
       O     2.64067   13.65035   18.08352
      H1     2.04600   14.40672   18.11558
       H    -0.63180   18.99008   15.39935
       O    -0.94287   18.43098   14.64019
      H1    -1.35524   19.22688   14.16953
       H    -2.00111   11.20629   14.18211
       O    -1.79905   11.37468   15.10254
      H1    -1.29076   10.58733   15.23647
       H     5.14596   15.06666    9.39632
       O     5.26327   15.64941   10.18616
      H1     6.11578   15.28087   10.43074
       H     6.76207   12.22968   11.66229
       O     7.32978   12.21146   12.49104
      H1     6.59178   12.31260   13.18253
       H    -7.01444   17.17629   12.01292
       O    -6.55903   17.75717   11.38864
      H1    -5.60286   17.74929   11.68429
       H    -2.66835   17.54955   17.03278
       O    -3.32490   17.63601   16.33346
      H1    -2.76012   18.03364   15.63101
       H     8.15055   13.81242   14.72838
       O     7.86244   14.10857   15.61965
      H1     7.92888   13.32426   16.12034

