180
frame 6 | Written by MDAnalysis XYZWriter (release 2.4.3)
       H     6.13896    2.82178   11.05557
       O     5.58679    2.04619   11.07187
      H1     5.20838    2.19524   11.97147
       H     4.53622  -10.88085   12.27847
       O     3.75692  -10.24833   12.12688
      H1     3.21686  -10.78903   11.50522
       H    -1.86343   -5.70294   17.62508
       O    -1.11802   -5.10328   17.88237
      H1    -1.24644   -4.35965   17.18239
       H     8.38791   -0.76001   13.30968
       O     9.29458   -0.52859   13.30050
      H1     9.32126    0.38217   12.97386
       H     2.34130   -8.89713   12.44953
       O     1.57734   -8.25494   12.39813
      H1     0.96832   -8.73697   11.78557
       H     9.70034   -2.47060   10.35026
       O    10.29909   -1.83581   10.74292
      H1     9.70573   -1.22279   11.24666
       H     3.61768   -1.34796   13.57969
       O     3.71800   -0.88771   14.44186
      H1     2.85925   -0.92370   14.90161
       H     9.16161   -3.12600   15.52363
       O     8.45534   -3.67963   15.37325
      H1     8.81053   -4.51467   15.60577
       H     1.76862   -1.59291   17.24397
       O     1.46912   -2.24550   16.51602
      H1     1.72552   -3.04898   17.05951
       H     6.67000    0.72519   10.50607
       O     6.87056   -0.21758   10.58794
      H1     6.64646   -0.40174   11.53153
       H    -1.19123   -3.38926    9.70207
       O    -0.30338   -3.55170   10.10347
      H1    -0.16157   -4.48150    9.82897
       H    10.21657   -1.90323   18.95566
       O     9.75965   -2.71640   19.09288
      H1    10.17736   -3.30606   18.42500
       H     0.80164    0.82879   11.68930
       O     1.19952    0.28597   11.00648
      H1     1.24454    0.87925   10.23488
       H     5.79067   -0.81235   13.75731
       O     6.53964   -1.08717   13.17008
      H1     6.57835   -2.05277   13.43615
       H     5.77654   -4.64614   17.66067
       O     5.02457   -5.11000   17.19756
      H1     4.79441   -4.49293   16.46530
       H     0.34128   -6.75319   17.34678
       O     1.14844   -7.22823   17.63037
      H1     1.29543   -7.79728   16.85686
       H     3.87131   -8.14084    8.28162
       O     3.13707   -7.55536    7.93829
      H1     3.14655   -7.73705    6.96326
       H     5.61238    3.17220   14.57580
       O     5.24356    2.45605   15.13489
      H1     5.50515    2.74888   16.03120
       H     6.80830   -7.40376   10.66652
       O     6.57199   -7.89482   11.45660
      H1     6.82221   -7.19249   12.11498
       H     2.46529    0.68065   17.51067
       O     2.35774   -0.17727   17.95424
      H1     3.24683   -0.55900   18.03782
       H     6.08456   -6.08094   16.30394
       O     6.53440   -6.74142   15.72343
      H1     6.04746   -7.58136   15.84922
       H     8.19283   -6.45907   16.13531
       O     9.12724   -6.10744   16.13520
      H1     9.23223   -5.65820   16.96990
       H     7.41017   -3.06166   16.83476
       O     6.93551   -2.84402   17.64640
      H1     7.71119   -2.70073   18.18468
       H    10.53584   -4.85054   10.61390
       O     9.86036   -5.53697   10.67083
      H1    10.16002   -5.92684   11.52267
       H     8.84057  -10.64868   11.13659
       O     8.37825   -9.87900   10.84582
      H1     7.59115   -9.70620   11.41141
       H     8.79215  -10.44099   16.81014
       O     8.50037  -10.32680   15.91904
      H1     7.58797   -9.89358   15.99837
       H     0.78240   -2.79495   12.76029
       O    -0.10534   -3.02104   13.01446
      H1    -0.59813   -2.96208   12.12849
       H     3.29422   -5.08118   13.51874
       O     3.42867   -5.73580   12.77991
      H1     2.69269   -6.33588   13.02447
       H     2.85201   -9.64431   16.56724
       O     2.15726   -9.32637   15.98918
      H1     2.57093   -8.89215   15.22305
       H     5.08771   -9.67045   15.10903
       O     5.86351   -9.78119   15.69306
      H1     5.37922  -10.08741   16.52147
       H     6.98870    1.67581   18.01162
       O     6.52549    1.95210   18.85236
      H1     7.32403    2.29351   19.30909
       H     3.98059   -7.27903   13.58381
       O     4.13389   -8.15352   14.03607
      H1     4.04681   -8.82407   13.35687
       H     0.85923    0.58795   18.58630
       O     0.07959    1.13262   18.50462
      H1    -0.06876    1.45742   19.41887
       H     4.73914   -4.36695    7.50568
       O     3.76944   -4.40636    7.43294
      H1     3.68792   -5.28651    7.84663
       H     2.53951   -2.86980   11.35927
       O     2.40455   -2.26868   12.09170
      H1     1.88411   -1.56235   11.77387
       H    -1.28203   -1.55106   13.56236
       O    -1.98872   -0.95320   13.74426
      H1    -2.07439   -0.98349   14.69543
       H     2.61186    2.82203   17.47670
       O     2.62272    2.63193   16.53373
      H1     3.49347    2.71367   16.21218
       H     2.08543   -2.81128    9.26351
       O     2.84475   -3.20150    9.66172
      H1     3.37075   -3.45211    8.88443
       H     1.28247   -5.94969   11.08689
       O     1.04056   -6.08587   10.21136
      H1     1.45613   -6.94451   10.00628
       H    -0.98245   -3.52200   14.95787
       O    -1.07199   -3.19368   15.85480
      H1    -0.16678   -2.84829   16.04134
       H     3.96673    1.53576   13.76772
       O     3.65878    1.69304   12.85813
      H1     3.22831    0.87118   12.59921
       H    -0.44646   -7.00643   14.16136
       O    -1.39339   -6.97939   13.98048
      H1    -1.64296   -6.15887   14.41724
       H     7.97647   -6.46713    8.63541
       O     7.30477   -6.07646    9.24551
      H1     7.71067   -5.15181    9.20117
       H     9.92441   -8.70781   13.22091
       O     9.94796   -8.02109   12.52338
      H1     9.42201   -8.34829   11.79165
       H     2.41600   -0.68611    8.23945
       O     2.18391   -1.18833    7.48535
      H1     3.05631   -1.46467    7.14479
       H     6.88558   -2.86687    9.47125
       O     7.80926   -3.27672    9.38982
      H1     8.02757   -2.94962    8.52570
       H     1.83751   -5.36077   15.39548
       O     1.03309   -5.64576   15.05833
      H1     0.32018   -5.04159   15.29335
       H     6.15458    1.16936   15.90913
       O     6.84772    0.72829   16.39450
      H1     6.34367   -0.01630   16.72232
       H     5.21188   -1.29949   19.13365
       O     4.80154   -1.38137   18.25037
      H1     5.34233   -2.01867   17.81390
       H    -2.24407    0.25157   11.80044
       O    -1.85357   -0.32071   11.15771
      H1    -0.96651   -0.34032   11.54007
       H     6.50992   -4.33209   13.55851
       O     5.80594   -3.75336   13.18576
      H1     5.93561   -4.01961   12.25286
       H     1.95617   -5.48839   17.63166
       O     2.33334   -4.58420   17.69699
      H1     3.27927   -4.70293   17.53051
       H     9.60444   -3.89060   13.60901
       O    10.50313   -3.64867   13.37214
      H1    10.45549   -3.27062   12.48032
       H     3.82572   -2.97031   15.13707
       O     3.66349   -3.85362   14.77045
      H1     4.53010   -3.96667   14.26772
       H     9.57109   -0.27369   16.31396
       O     9.84249   -1.11947   15.92205
      H1     9.52763   -0.83409   15.00928
       H     4.36145   -2.26136    9.82823
       O     5.09987   -1.89342    9.28716
      H1     5.54175   -1.19662    9.82265
       H     5.77358   -5.73764   10.41606
       O     5.38668   -5.02632   10.98900
      H1     4.61880   -5.56078   11.33644
       H     8.31455   -6.59507   13.09185
       O     7.51724   -6.05965   13.21512
      H1     7.10393   -6.47684   13.96232
       H    -0.64462   -7.17936   10.56902
       O    -1.51404   -7.50555   10.83045
      H1    -1.57898   -7.23403   11.78451
       H     5.41506   -8.99435   10.17031
       O     5.02939   -9.28175    9.32728
      H1     5.61243   -9.92780    9.02389

