180
frame 3 | Written by MDAnalysis XYZWriter (release 2.4.3)
       H    -2.13211   -8.96209    0.48709
       O    -1.65261   -9.76492    0.80985
      H1    -1.03907   -9.43636    1.43956
       H    -5.54233   -8.00578   -2.31978
       O    -5.04007   -8.09945   -1.48293
      H1    -4.90725   -7.22011   -1.13018
       H    -6.00234   -7.57290    3.36323
       O    -6.83300   -7.32277    2.89055
      H1    -6.89486   -7.96790    2.15376
       H    -0.05420   -7.88322   -2.48513
       O     0.68547   -7.91270   -3.10970
      H1     0.62051   -8.80304   -3.47909
       H    -3.14971   -5.54259   -5.83314
       O    -4.06323   -5.67227   -6.05901
      H1    -4.18996   -5.99889   -6.97898
       H    -5.26162   -2.11873   -2.76887
       O    -4.29810   -2.34427   -2.51748
      H1    -3.81593   -1.87517   -3.25411
       H    -1.58361   -5.15605    1.47143
       O    -1.82558   -5.14350    0.56796
      H1    -1.32304   -4.44262    0.28037
       H    -7.59037  -12.12813    5.97649
       O    -7.36052  -11.62575    5.14407
      H1    -8.01879  -11.88578    4.43542
       H    -8.52166   -8.07780    3.59043
       O    -9.14057   -8.30749    4.28301
      H1    -9.65031   -9.08530    4.05547
       H    -8.96533   -6.03710   -4.31629
       O    -8.69865   -5.72649   -3.39663
      H1    -9.62003   -5.36489   -3.12056
       H    -8.16765   -4.04051   -4.09150
       O    -8.03966   -3.30311   -4.71233
      H1    -7.19306   -3.42500   -5.17637
       H   -10.80873   -4.81041    3.26149
       O   -10.76468   -4.29717    4.07041
      H1   -10.19237   -3.58112    3.78157
       H    -9.41150  -12.97036    3.14582
       O    -8.68941  -12.32563    3.00367
      H1    -8.29987  -12.75429    2.24671
       H   -10.64641  -13.18462   -0.45773
       O   -10.07996  -12.44128   -0.74473
      H1   -10.64108  -11.64259   -0.68523
       H   -10.15007   -5.38702   -6.41955
       O    -9.68461   -6.13487   -6.02006
      H1    -9.72936   -6.86432   -6.63116
       H    -2.97212  -11.42652   -3.97952
       O    -3.07378  -12.05559   -4.76670
      H1    -2.69396  -11.71906   -5.59395
       H    -5.23558   -6.17921    5.69805
       O    -4.76317   -5.34190    5.62642
      H1    -5.24037   -4.86143    4.93128
       H    -8.98718   -5.75184   -0.07602
       O    -8.79777   -4.94849    0.39621
      H1    -7.86603   -4.94802    0.54288
       H   -10.82778  -10.99174    4.32097
       O   -10.64665  -10.57290    3.45553
      H1    -9.95328  -11.09004    2.95479
       H    -4.94839  -11.50264    1.29116
       O    -4.91443  -10.98462    2.11797
      H1    -5.08568  -11.69135    2.77499
       H    -0.89993   -6.55367   -0.17265
       O    -0.59498   -7.36742   -0.52374
      H1     0.15553   -7.52914    0.03755
       H    -7.92986  -10.25341    6.05703
       O    -8.34752   -9.52691    6.61450
      H1    -8.86757   -9.07382    5.89754
       H    -9.44322  -13.59856   -3.55621
       O    -9.46074  -12.67191   -3.46614
      H1    -9.71619  -12.52179   -2.56857
       H    -5.07004  -14.92616   -1.22135
       O    -4.51735  -14.25767   -1.66401
      H1    -3.65144  -14.57262   -1.92624
       H    -4.82601   -1.73026   -0.74630
       O    -4.91741   -1.30747    0.09678
      H1    -5.85065   -1.51208    0.44701
       H   -11.36939   -8.64741   -4.12372
       O   -11.27623   -7.86790   -3.57232
      H1   -10.89790   -7.22140   -4.16226
       H   -11.76293   -4.92744   -3.72954
       O   -11.43468   -5.11922   -2.85526
      H1   -11.75277   -4.33298   -2.31649
       H    -6.19143  -12.52400    4.31411
       O    -5.42887  -12.96836    3.79807
      H1    -5.81376  -13.84037    3.51755
       H    -6.87658   -7.11254   -3.63095
       O    -6.26471   -7.82956   -3.80462
      H1    -6.78479   -8.53563   -4.14451
       H    -8.09295   -8.20226   -0.81412
       O    -7.46923   -7.82582   -0.16082
      H1    -6.62766   -7.96353   -0.56822
       H    -8.41572   -9.24382   -6.12858
       O    -7.62960   -9.73371   -5.75169
      H1    -8.06953  -10.29559   -5.06003
       H   -10.77262   -5.70842    5.33042
       O   -10.47897   -6.51793    5.89156
      H1    -9.86700   -6.99288    5.33108
       H    -4.95968   -5.34965   -4.23184
       O    -5.00179   -5.08975   -3.29859
      H1    -5.01316   -4.13329   -3.29378
       H    -1.80841  -10.74225    3.11566
       O    -2.47769  -11.39147    3.35692
      H1    -3.21900  -11.24940    2.77123
       H   -11.30624   -6.04121    1.39931
       O   -11.07953   -5.13896    1.61203
      H1   -10.16076   -5.06687    1.20361
       H    -6.08972   -1.12713   -3.89691
       O    -6.76143   -1.58223   -3.37991
      H1    -7.17979   -2.22716   -3.94387
       H    -4.71060  -13.14408   -4.46613
       O    -5.39406  -13.74179   -4.18157
      H1    -5.01678  -13.96657   -3.33940
       H    -8.61045   -9.23648   -2.33158
       O    -9.32989   -8.85894   -1.80136
      H1   -10.01289   -8.38829   -2.34372
       H    -7.79352  -11.66298   -3.31621
       O    -7.27477  -10.97080   -2.88015
      H1    -6.47771  -11.36042   -2.50098
       H    -8.22544   -1.99955    0.08814
       O    -7.70086   -1.59695    0.80111
      H1    -8.18170   -1.85931    1.61759
       H    -6.46963   -4.28727    3.12478
       O    -6.46337   -3.92006    4.03440
      H1    -6.18210   -2.99929    3.99789
       H    -4.48723  -10.93306   -1.14188
       O    -5.14780  -11.58311   -0.83987
      H1    -4.75688  -12.41682   -1.11977
       H    -7.00528  -16.27199   -1.01624
       O    -6.47502  -15.66485   -0.45651
      H1    -6.95923  -14.82299   -0.33533
       H    -1.95580   -7.61068   -5.10359
       O    -2.29903   -8.50185   -5.15726
      H1    -3.22436   -8.49365   -4.78129
       H    -2.02791   -6.58296    5.23760
       O    -2.08500   -7.17183    4.45801
      H1    -3.02106   -7.39639    4.37212
       H    -3.54821   -5.18650   -0.32358
       O    -4.45550   -5.55902   -0.52736
      H1    -4.51035   -5.38239   -1.47180
       H    -6.85937  -12.34244   -0.04906
       O    -7.45457  -13.06583    0.15107
      H1    -8.29877  -12.66274   -0.12851
       H   -11.76452   -7.16267    4.60950
       O   -12.61229   -7.36370    4.23438
      H1   -12.39467   -7.62232    3.28149
       H   -14.12508   -7.09847   -3.56089
       O   -13.70178   -7.15059   -2.69026
      H1   -12.73440   -7.22798   -2.81187
       H    -9.78010   -2.27256   -0.89419
       O    -9.05164   -2.79503   -1.17937
      H1    -9.06992   -3.51237   -0.59350
       H    -4.55036   -9.21573    3.57063
       O    -4.51722   -8.41967    4.11300
      H1    -5.04353   -8.60652    4.87765
       H    -3.09991   -1.73513    2.76572
       O    -3.14202   -2.46644    2.08675
      H1    -3.94466   -2.21622    1.55609
       H    -1.95748   -4.12024    2.71504
       O    -1.23385   -4.67780    3.05063
      H1    -1.62698   -5.55155    3.42030
       H   -11.16966   -9.67593   -1.17462
       O   -11.81006  -10.08865   -0.60253
      H1   -12.62912  -10.19249   -1.15404
       H    -0.97983  -10.84628   -3.28973
       O    -0.54590  -10.34768   -4.02243
      H1    -1.13599   -9.70183   -4.37767
       H    -2.97385   -9.78412   -1.94743
       O    -2.70169  -10.69137   -2.28243
      H1    -1.91942  -10.87701   -1.72252
       H    -0.62688  -11.00488   -0.31084
       O    -0.38357  -11.19040   -1.24733
      H1     0.49409  -10.87099   -1.44802
       H   -13.12363   -7.41809    1.01986
       O   -12.24093   -7.82326    1.20113
      H1   -12.06314   -8.62128    0.67176
       H    -5.17003   -4.38839   -6.22884
       O    -5.74381   -3.62766   -6.24880
      H1    -6.41726   -3.94427   -6.88167
       H    -6.42176   -5.93369    1.90251
       O    -6.31898   -5.04671    1.46582
      H1    -5.71075   -5.17708    0.77377

