180
frame 4 | Written by MDAnalysis XYZWriter (release 2.4.3)
       H    -4.67861   10.06229   -4.42655
       O    -4.92311    9.13406   -4.44956
      H1    -5.85478    9.26714   -4.71803
       H   -17.02061   16.87514   -3.39164
       O   -16.62356   16.30741   -4.10034
      H1   -17.31481   16.41679   -4.77095
       H   -12.38062    8.80596   -1.98914
       O   -13.09103    8.25968   -2.26417
      H1   -13.36071    8.52142   -3.13072
       H    -6.16562   12.37059   -7.01107
       O    -5.62892   13.16675   -6.80120
      H1    -6.23991   13.67576   -6.17300
       H   -12.69975   18.22404   -2.97846
       O   -12.06634   17.50800   -2.71673
      H1   -12.20535   17.57690   -1.76136
       H    -7.40326   17.68829   -5.20401
       O    -6.84771   17.08374   -4.66679
      H1    -7.29387   16.27023   -5.04994
       H   -10.99277   11.18168    2.37603
       O   -11.07015   12.10437    2.22874
      H1   -10.59725   12.20466    1.39679
       H   -13.22452    6.93676   -5.48843
       O   -12.55812    6.23996   -5.64605
      H1   -12.89126    5.91457   -6.56250
       H   -14.06316   11.08729   -8.02949
       O   -14.68228   11.65631   -7.54272
      H1   -15.53431   11.28074   -7.74809
       H    -7.72543   14.80678   -0.33332
       O    -7.67840   15.42199    0.42926
      H1    -7.72895   16.28049   -0.02745
       H    -3.31284   13.55975   -0.31751
       O    -4.22034   13.85512   -0.13838
      H1    -4.80838   13.14828    0.26060
       H    -8.87670    9.23615   -6.97449
       O    -8.65165    8.91872   -6.08375
      H1    -9.09296    8.05637   -6.07622
       H    -8.60829   16.25581   -2.50641
       O    -7.71297   16.70620   -2.28764
      H1    -7.41236   16.89968   -3.20715
       H   -11.61640   13.31616   -3.18156
       O   -11.18447   13.14302   -2.29916
      H1   -11.48288   12.22399   -2.12414
       H    -7.37059   13.57016    2.21018
       O    -7.85404   12.79289    1.90615
      H1    -7.56053   12.18153    2.66827
       H    -9.47104    9.08395    2.71549
       O    -9.91661    9.31873    1.89892
      H1    -9.80833    8.61966    1.27753
       H    -8.63516   11.76973    0.28683
       O    -8.92814   10.94476   -0.21460
      H1    -9.12834   10.48522    0.64467
       H    -6.15749   15.13401   -2.10949
       O    -5.58535   14.69354   -2.74235
      H1    -4.96615   14.27354   -2.13799
       H   -12.17829   10.29569   -6.52145
       O   -11.86897    9.62375   -5.92755
      H1   -11.34124   10.00429   -5.23819
       H    -6.03204   10.58267    0.94514
       O    -5.67433   11.53068    0.79887
      H1    -6.50669   12.06918    1.00877
       H   -16.40095   10.03519   -1.75800
       O   -15.99767    9.38127   -1.17016
      H1   -15.22388    9.13543   -1.66849
       H   -14.20457   17.62798    1.12294
       O   -14.68373   17.82438    0.26533
      H1   -14.27517   18.69958    0.09831
       H   -10.86732   16.23672   -6.73874
       O    -9.95652   16.20450   -6.36374
      H1   -10.05542   15.83812   -5.45707
       H   -10.20449   13.79999  -10.28459
       O   -10.55325   13.31022   -9.48217
      H1    -9.87500   13.46947   -8.80878
       H   -12.63085   15.66323   -8.06614
       O   -12.41643   16.58765   -8.16543
      H1   -12.98461   16.95254   -7.49836
       H    -8.77875   11.70685   -3.65376
       O    -7.98670   12.29245   -3.83376
      H1    -7.28251   11.82420   -3.30820
       H   -10.05399   12.20850    5.35786
       O   -10.85375   11.79897    5.04033
      H1   -10.92517   12.17348    4.13980
       H   -15.13835   15.73146   -3.59179
       O   -14.17393   15.50218   -3.41014
      H1   -13.60137   16.28758   -3.38797
       H   -14.63274    9.88741   -0.17195
       O   -13.81957   10.00472    0.30562
      H1   -14.15808   10.67910    0.90129
       H   -16.96539   14.14537   -1.46095
       O   -16.83763   14.08692   -0.49336
      H1   -15.95252   14.42887   -0.52780
       H    -7.67615   13.79054   -4.73058
       O    -7.10607   14.51969   -5.03379
      H1    -6.44981   14.61052   -4.33477
       H   -12.59550   14.67040    3.17923
       O   -12.41667   15.17845    3.97022
      H1   -12.97879   15.97967    3.77144
       H   -10.18447   14.82290   -2.75287
       O   -10.06033   15.58112   -3.35496
      H1   -10.62058   16.30413   -3.00755
       H   -15.77345    6.61151    0.94518
       O   -15.14393    6.39758    1.62569
      H1   -14.38062    6.95426    1.40879
       H   -10.46344    7.00785   -5.03566
       O    -9.53494    6.72932   -5.02732
      H1    -9.45351    6.64292   -4.06210
       H   -12.20915    9.50871    3.70105
       O   -12.74112   10.23027    4.07214
      H1   -12.09486   10.92992    4.31595
       H    -7.83529   13.90721   -7.38711
       O    -8.73145   14.03875   -7.64111
      H1    -8.99532   14.80463   -7.14542
       H   -16.90899   12.14905    0.73881
       O   -16.62487   11.34388    1.20839
      H1   -15.84973   11.70070    1.70276
       H    -6.06112   11.82812   -1.36867
       O    -5.92188   11.37232   -2.20298
      H1    -5.18706   10.77655   -1.87786
       H    -9.62683    9.68646   -4.16405
       O   -10.18936   10.42079   -3.93557
      H1   -10.48708   10.09751   -3.06798
       H   -14.35628   16.16751   -0.42123
       O   -14.05619   15.35358   -0.75946
      H1   -14.26378   15.43657   -1.70081
       H   -10.27778    9.99044   -8.32010
       O    -9.54492    9.62491   -8.85829
      H1    -9.34551   10.29649   -9.51995
       H   -11.34453   13.94687   -0.65071
       O   -10.66903   14.15871    0.08653
      H1   -10.71577   15.11725    0.00877
       H    -8.88818    6.92630    0.16179
       O    -9.19284    7.57551   -0.48592
      H1    -8.38060    8.08844   -0.65687
       H    -5.17080   11.91156   -3.86617
       O    -4.53344   11.90456   -4.59451
      H1    -4.97593   12.36076   -5.33479
       H   -12.73109    7.15944    0.06763
       O   -12.68863    7.45664    0.98876
      H1   -12.90754    8.36152    0.81593
       H   -15.02329   11.54421   -5.65258
       O   -14.94421   11.52405   -4.64650
      H1   -14.61980   10.61397   -4.65744
       H   -12.68139   13.64813   -6.46502
       O   -12.63461   13.89697   -7.34874
      H1   -11.75072   13.67720   -7.70910
       H   -13.73291   12.69719    2.23936
       O   -14.14591   11.81773    2.35494
      H1   -13.75532   11.39626    3.12692
       H   -13.58520    8.99996   -5.59303
       O   -14.23543    8.61184   -4.98586
      H1   -15.05831    8.50785   -5.48951
       H   -11.94782   11.42407   -9.29047
       O   -12.22367   10.65038   -8.79774
      H1   -12.20128    9.90942   -9.43187
       H    -9.18006   13.54523   -0.75775
       O    -8.31232   13.47408   -1.27294
      H1    -8.67870   12.97897   -2.07528
       H   -13.67705    5.74919   -2.03595
       O   -14.57708    5.31297   -1.93999
      H1   -14.50733    4.54354   -2.55119
       H   -13.43560   14.67525    0.71694
       O   -13.13698   14.26661    1.52989
      H1   -12.19390   13.99954    1.33367
       H   -17.87176   12.51005   -2.69969
       O   -17.27212   13.26940   -2.98089
      H1   -16.57272   12.78479   -3.39945
       H   -10.29109    5.35280   -2.30673
       O    -9.50104    5.84507   -2.59415
      H1    -9.31783    6.46746   -1.89130
       H   -12.02501   10.39556   -0.57198
       O   -11.44426   10.68018   -1.24389
      H1   -10.59549   10.73990   -0.73090
       H   -11.42103   16.86314    0.89330
       O   -11.19648   16.99929    0.02255
      H1   -10.50609   17.68869    0.01546
       H   -12.95366   14.47565   -4.39585
       O   -12.63552   13.60194   -4.59195
      H1   -13.49072   13.13570   -4.46201
       H    -8.46179   18.59425   -2.93524
       O    -8.32346   19.54234   -2.82064
      H1    -8.86777   19.93515   -3.48488

