180
frame 10 | Written by MDAnalysis XYZWriter (release 2.4.3)
       H   -16.20430   19.09170   13.73507
       O   -17.10541   18.87464   13.51600
      H1   -17.32583   18.17624   14.13720
       H   -14.99093   14.79337    6.53614
       O   -14.18510   15.29638    6.70164
      H1   -14.14171   15.81378    5.89976
       H   -14.14687   16.15470   10.22816
       O   -14.94615   16.63237    9.87023
      H1   -14.57434   17.26599    9.20436
       H   -10.04392   16.88930   17.94782
       O   -10.61791   17.55969   18.20960
      H1   -11.34562   17.51015   17.53646
       H   -10.18646   15.44759   14.07487
       O   -10.08336   16.38663   14.39271
      H1   -10.46743   16.97567   13.70163
       H   -15.45238   16.41533   16.92731
       O   -14.91345   15.75167   16.45675
      H1   -14.59483   15.25853   17.24718
       H   -12.54764   10.34177   14.10247
       O   -11.77895   10.80522   13.72630
      H1   -11.23130   10.88477   14.54456
       H   -17.14631   16.15951   15.45270
       O   -17.65928   16.95934   15.27321
      H1   -17.55186   17.40671   16.11996
       H   -14.61330   16.69940   13.19769
       O   -13.65859   16.86901   13.32142
      H1   -13.47450   16.74665   14.24458
       H   -16.95378   11.80690    7.74814
       O   -17.89983   11.68444    7.45335
      H1   -18.16915   12.63916    7.38271
       H   -15.01321    9.57055   14.10829
       O   -14.11950    9.34113   14.19629
      H1   -14.04606    8.68533   13.49208
       H    -9.13109    9.80288    9.53326
       O    -8.48490    9.61897   10.32507
      H1    -9.16843    9.46812   10.96194
       H   -13.95463   19.17216   18.00919
       O   -13.43073   19.89919   17.65026
      H1   -12.82058   19.48269   16.97907
       H   -10.82635   16.12637   10.56503
       O    -9.94593   16.32823   10.20429
      H1   -10.01350   15.59390    9.50165
       H   -17.18033   15.06151    4.04725
       O   -16.61136   14.49477    4.63106
      H1   -17.26739   14.35057    5.36647
       H   -11.07278   13.90196    7.98553
       O   -10.40822   14.04402    8.68845
      H1   -10.58298   13.34673    9.35546
       H    -9.72808   13.02029   13.52124
       O    -9.82827   13.56957   14.27678
      H1    -9.51189   13.04713   15.00749
       H   -10.85869   10.68690    8.15066
       O   -10.77956    9.77576    8.42907
      H1   -10.59014    9.19954    7.69704
       H    -8.59840   19.28887   15.05885
       O    -8.22933   18.44626   15.35774
      H1    -7.93329   18.56895   16.26653
       H   -17.60091   16.51082    9.99556
       O   -17.64272   15.79084    9.35239
      H1   -16.73330   15.95968    9.09211
       H    -6.45679   15.20806   10.82070
       O    -5.54757   15.04473   10.61157
      H1    -5.46912   15.54520    9.73092
       H   -11.55666    8.10807   10.54081
       O   -12.26196    8.14834    9.90069
      H1   -11.73157    8.78959    9.38119
       H    -6.29345   14.33960   15.91802
       O    -7.25068   14.15094   15.84072
      H1    -7.54999   14.61949   15.03997
       H   -18.27857   17.07877    7.81776
       O   -18.96009   16.92648    7.11848
      H1   -18.48861   17.33226    6.32935
       H   -18.03477   10.42901   10.57623
       O   -17.04448   10.58736   10.64392
      H1   -16.91264   11.38963   10.08665
       H   -10.66710   18.55234   11.70168
       O   -10.90356   18.37618   12.61066
      H1   -11.84371   18.03073   12.55298
       H   -11.70969   17.69149    7.99714
       O   -10.71138   17.51092    7.91189
      H1   -10.36450   17.33481    8.81275
       H    -8.31712   10.76206   12.18525
       O    -8.25244   11.72462   12.34456
      H1    -8.03860   12.15045   11.52838
       H   -15.41927   18.80240    6.06791
       O   -14.66161   19.37448    6.27624
      H1   -15.07098   20.06907    6.88812
       H   -12.90015   16.37878   16.10202
       O   -12.19585   17.08049   16.02431
      H1   -11.42029   16.62169   15.62586
       H   -11.57324   12.32182   11.79474
       O   -11.77113   12.86838   11.00544
      H1   -12.34907   12.21802   10.49966
       H    -7.09142   13.28052    7.87758
       O    -6.84128   12.33307    8.05892
      H1    -6.50134   12.39052    8.94169
       H   -17.66542   19.42776    7.69090
       O   -17.44744   19.31582    8.64080
      H1   -18.33164   19.76653    8.88326
       H    -6.59512   12.53334   15.05166
       O    -6.39238   11.87505   14.39202
      H1    -6.95713   12.11403   13.65552
       H    -8.04556   15.20423   12.41033
       O    -8.10792   14.83478   11.52177
      H1    -8.87068   15.30552   11.20788
       H   -10.00910   12.75980    5.75091
       O   -10.79267   12.23770    5.48711
      H1   -10.88611   12.59292    4.58980
       H    -7.43997   17.65372    6.19418
       O    -6.74698   18.14182    6.71782
      H1    -7.28603   18.61236    7.36529
       H   -12.87581   16.40964    3.34960
       O   -13.14174   16.79033    4.28620
      H1   -13.36508   17.70728    4.17480
       H    -7.43518   19.53378    8.97656
       O    -8.09986   18.83757    8.83104
      H1    -7.91326   18.34778    9.64377
       H   -12.76625   14.87939   11.09263
       O   -12.65788   15.83445   10.85930
      H1   -12.73778   16.32260   11.70439
       H   -13.86036   11.28763    6.77322
       O   -14.31853   10.67238    7.38133
      H1   -14.62731    9.96828    6.79228
       H    -8.86694   15.65639    4.30040
       O    -8.72159   14.98681    3.63102
      H1    -8.78156   15.50897    2.79443
       H   -13.67183   18.28029    7.19693
       O   -13.30060   17.71640    7.94669
      H1   -13.46288   16.75529    7.61165
       H   -17.23884   11.66948   12.34583
       O   -17.79196   11.97106   13.09737
      H1   -18.73598   11.90622   12.83296
       H    -7.48724   15.13062    7.24251
       O    -8.11351   14.44343    6.94891
      H1    -8.69775   14.32493    7.66696
       H   -10.63303   16.51099    6.37796
       O   -10.59458   16.37960    5.40400
      H1   -11.54503   16.41808    5.22196
       H    -6.73373   16.81385   13.87986
       O    -7.45363   16.18986   13.62296
      H1    -8.25488   16.72965   13.91922
       H   -17.59435   18.12639   11.99978
       O   -18.16029   17.74659   11.29851
      H1   -18.01134   18.29778   10.49421
       H   -18.42440   14.61200   10.32740
       O   -18.64140   13.72098   10.69792
      H1   -19.42346   13.54689   10.18363
       H   -17.10371   13.16716   10.31873
       O   -16.33813   13.03202    9.77963
      H1   -15.62305   12.98738   10.44739
       H   -17.21632   18.46315    5.21829
       O   -16.71319   17.65109    5.26982
      H1   -16.59795   17.51719    4.32239
       H   -19.33282   13.85392    6.10726
       O   -18.51865   14.05114    6.57280
      H1   -18.68944   14.88443    7.01303
       H   -18.71736   14.50718   12.19690
       O   -18.79776   15.05523   12.99744
      H1   -18.12274   15.75674   12.91593
       H   -15.68401   14.12644   14.77993
       O   -15.74372   14.23114   13.84319
      H1   -16.54476   13.71048   13.65300
       H   -10.80135   18.49937    2.91926
       O    -9.94144   18.29569    3.42903
      H1   -10.27676   17.60630    4.05349
       H    -7.01444   17.17629   12.01292
       O    -6.55903   17.75717   11.38864
      H1    -5.60286   17.74929   11.68429
       H   -10.76151    8.45735   12.69094
       O   -10.33647    9.13848   12.13803
      H1   -10.81315    9.84956   12.63651
       H   -13.19043   14.02015    7.04024
       O   -12.59121   13.22854    7.24171
      H1   -12.26776   13.02644    6.35225
       H   -13.01103    9.93569    9.83689
       O   -13.03608   10.87349    9.85163
      H1   -13.37214   11.00934    8.93369
       H   -13.36556   13.30944   11.67640
       O   -14.27508   13.61040   11.70389
      H1   -14.48080   13.89316   12.58502

