180
frame 4 | Written by MDAnalysis XYZWriter (release 2.4.3)
       H    -1.36448    1.50913   14.23054
       O    -1.62109    2.41223   14.03651
      H1    -0.83266    2.84446   13.70311
       H    -7.40442    1.68748    8.78358
       O    -7.08680    1.43032    9.65111
      H1    -7.89172    1.79305   10.05123
       H    -4.49317    6.55413   10.74592
       O    -3.68022    6.76469   10.22699
      H1    -4.00360    7.45800    9.63611
       H    -5.69350    4.93635   17.22179
       O    -5.27658    5.23066   18.02354
      H1    -4.36168    5.02123   17.78057
       H    -2.17417    5.16061   18.47230
       O    -2.45440    4.81394   17.58069
      H1    -1.74835    4.24077   17.31784
       H   -10.01394    7.57169   12.96188
       O    -9.25102    7.88015   12.39124
      H1    -8.46681    7.68811   12.91056
       H     0.53693    3.44449   16.22306
       O    -0.18558    2.95099   16.67219
      H1    -0.65292    2.55132   15.90444
       H    -3.30121   11.82926   12.32717
       O    -2.51784   12.20258   12.80738
      H1    -2.42650   13.17954   12.64246
       H    -4.05933   10.19161   18.27421
       O    -4.22797    9.31956   18.63449
      H1    -4.54634    8.76719   17.93653
       H    -1.91735    4.64308   10.24603
       O    -1.99546    3.84394    9.67318
      H1    -2.62149    4.16628    8.95395
       H    -2.42969    0.55407   17.02084
       O    -1.81242   -0.08453   17.31864
      H1    -1.52762    0.37349   18.11897
       H    -6.55687    7.98443    7.55506
       O    -6.12453    8.82825    7.35586
      H1    -6.77756    9.44671    7.72683
       H    -4.62831    4.20595    7.48511
       O    -3.81532    4.63800    7.79519
      H1    -4.17138    5.33336    8.33048
       H   -10.27152    3.92245   13.98796
       O    -9.98778    4.59493   13.32860
      H1   -10.23678    5.35999   13.79547
       H    -9.88284    1.54214   15.67923
       O   -10.21221    2.40676   15.58644
      H1   -10.27715    2.83205   16.48178
       H    -3.39798    2.39457   12.49867
       O    -4.02252    1.79265   12.01239
      H1    -3.82823    0.92866   12.32378
       H    -4.86815    3.85819   10.53937
       O    -5.58760    4.03725    9.93777
      H1    -6.08005    3.18375   10.04246
       H   -10.09931    4.93142    8.95121
       O    -9.89416    5.65917    9.53305
      H1    -9.34365    5.29112   10.22380
       H     2.03173    5.91610   11.76725
       O     2.55650    5.16931   11.33145
      H1     2.34879    4.39083   11.89160
       H    -8.56542    3.03286   14.23018
       O    -7.88276    2.65185   13.67164
      H1    -7.73269    1.73501   13.99281
       H    -6.47596   10.62179   15.89242
       O    -6.39205    9.65877   16.09329
      H1    -6.78281    9.18304   15.32967
       H    -6.47980    7.09540   14.00556
       O    -7.23787    7.56349   14.34290
      H1    -7.50417    6.97518   15.09960
       H    -9.87413   10.15908   14.70706
       O    -9.99142   10.34614   13.76622
      H1    -9.75666    9.45155   13.47143
       H    -8.28355    9.97734   18.48461
       O    -8.20515    9.12897   18.03402
      H1    -7.56993    9.40046   17.39662
       H     0.51552    6.93774   16.38354
       O     0.22890    7.48029   15.61058
      H1    -0.61583    6.97680   15.50813
       H     0.50569   10.82191   16.32016
       O     0.13516   10.44252   15.51095
      H1     0.14215    9.47783   15.57811
       H     1.53265    4.92787   15.79348
       O     1.83853    4.20891   15.25507
      H1     2.76752    4.32296   15.14031
       H    -8.84663    6.45611   11.45840
       O    -8.24029    5.68466   11.52083
      H1    -8.53650    5.37234   12.39366
       H    -1.85087    7.33407   10.76641
       O    -0.93342    7.04615   10.82940
      H1    -0.49218    7.70445   10.28325
       H    -7.90265   11.05420    9.92201
       O    -7.43765   10.87216   10.77364
      H1    -6.82190   11.58146   10.84966
       H    -8.85932    2.46280   11.79334
       O    -9.22094    2.57877   10.90041
      H1   -10.18790    2.56110   11.06473
       H     0.87505    5.32948   18.50338
       O     0.98992    5.95294   17.77731
      H1     1.80361    6.38425   18.00729
       H    -6.32666    9.64466   11.00661
       O    -5.70706    8.88310   10.84669
      H1    -4.93811    9.47244   10.52179
       H    -5.03435   -1.42365   15.01341
       O    -5.88776   -1.43049   15.47931
      H1    -5.82700   -2.03469   16.15611
       H    -1.91860    3.15708    6.86116
       O    -1.35195    3.34776    6.14081
      H1    -0.53381    3.78309    6.45827
       H    -7.59621    5.88859    7.50364
       O    -7.97710    6.69489    7.85414
      H1    -8.03094    6.46055    8.74947
       H    -0.86095   -0.98035   13.97926
       O    -1.21738   -0.21211   14.45947
      H1    -1.39650   -0.61117   15.31740
       H    -5.65016    4.45690   15.03648
       O    -6.44134    4.43738   15.53628
      H1    -6.95052    3.66490   15.16741
       H    -5.96770    0.26854   12.48419
       O    -6.63389   -0.09925   11.87061
      H1    -6.60031    0.29580   11.00385
       H    -8.18592    4.48266   19.17260
       O    -7.80474    4.37636   18.27559
      H1    -7.02837    4.90940   18.44231
       H    -3.25621    5.05100   14.42674
       O    -3.87162    4.50633   13.91071
      H1    -4.13414    5.21377   13.27233
       H    -4.40470    1.50004   15.86408
       O    -3.53990    1.82910   16.13285
      H1    -3.17845    1.97280   15.23079
       H     0.36702    2.47204   11.41822
       O    -0.26607    1.86591   11.05475
      H1    -0.74984    2.57376   10.59253
       H    -1.80828    8.51587   16.76626
       O    -1.50280    8.56349   17.69172
      H1    -2.29976    8.85079   18.13475
       H    -2.29853    6.01464   16.35418
       O    -2.33320    6.41544   15.47417
      H1    -3.14773    6.95803   15.47353
       H    -3.25372    9.93281    8.56823
       O    -3.72190    9.14254    8.82074
      H1    -4.41139    8.96627    8.15573
       H    -7.40238    1.37444   18.62755
       O    -6.84683    1.84176   18.04278
      H1    -7.13865    2.78152   18.24236
       H    -1.25749    5.00856   13.59904
       O    -0.69751    4.78605   12.87741
      H1    -0.86692    5.46443   12.28191
       H    -5.51492    7.35225   11.91938
       O    -5.55030    6.43213   12.29120
      H1    -6.35406    6.07102   11.87215
       H    -2.58606    0.42165   10.13234
       O    -2.11206   -0.27825   10.63737
      H1    -1.79561    0.21867   11.41399
       H    -2.58093    8.11885    7.60607
       O    -2.04306    7.57250    6.94907
      H1    -2.05211    8.24024    6.18599
       H     0.33894    7.37484   12.07805
       O     1.03489    7.56384   12.79534
      H1     0.47087    7.39120   13.56604
       H    -3.00174   -0.30106   13.67965
       O    -3.96250   -0.34440   13.70103
      H1    -4.11155   -1.15888   13.20761
       H    -2.38515   11.50624   14.57427
       O    -2.45911   11.49971   15.55719
      H1    -1.58723   10.97292   15.72666
       H    -7.05698    1.26200   16.35378
       O    -7.23489    0.86359   15.46949
      H1    -6.54696    0.22308   15.49986
       H    -3.44640    9.77482   15.41141
       O    -3.78408    8.88730   15.40421
      H1    -4.72831    9.17582   15.65105
       H     2.80292    2.45910   12.41494
       O     1.97122    2.88892   12.65113
      H1     2.10092    3.23350   13.58050
       H    -3.64014    2.40349    9.04605
       O    -3.67257    1.43914    8.96629
      H1    -3.97164    1.42782    8.07111
       H     1.83249    8.95172   10.43096
       O     0.86944    9.21143   10.50511
      H1     0.67752    9.16795    9.60790
       H    -8.17555    5.61516   16.81326
       O    -8.97802    6.18469   16.56443
      H1    -8.87543    6.89894   17.21481

