180
frame 7 | Written by MDAnalysis XYZWriter (release 2.4.3)
       H     6.68033   16.56635    2.15981
       O     6.69969   15.69982    2.63293
      H1     7.67979   15.66557    2.69343
       H    12.12247   12.84711   11.73879
       O    11.54567   13.38794   11.21111
      H1    10.71880   13.33886   11.76277
       H     9.39558   10.24069   10.27683
       O     8.89838    9.58813   10.83582
      H1     7.97897    9.82154   10.77731
       H    11.00349   15.45934   17.26381
       O    11.90805   15.03101   17.25064
      H1    12.52215   15.77017   17.45625
       H     3.28060   17.36723   14.96010
       O     3.95197   17.29858   15.67552
      H1     4.47229   18.09422   15.46954
       H     9.63902   18.78400   16.11873
       O     9.67372   18.06675   16.79505
      H1    10.60297   17.68533   16.73998
       H     5.82815   18.92405    3.19572
       O     4.91197   19.12403    3.32416
      H1     4.61508   19.16481    2.41148
       H    10.18342   18.90479   14.18921
       O    10.77492   18.48853   13.56675
      H1    11.48420   18.13200   14.06633
       H    17.19031   16.91770   12.53333
       O    16.84113   16.60703   11.64905
      H1    17.33843   17.16507   11.01300
       H     3.21344   16.88581   11.05090
       O     3.96388   17.38159   11.15916
      H1     4.68166   16.98099   10.57914
       H    12.33796   17.82218    5.86257
       O    13.18535   18.26370    5.82035
      H1    13.09609   19.07521    6.27639
       H    14.82602   12.83756   11.93509
       O    14.28082   12.51585   11.22698
      H1    14.73546   12.84382   10.40718
       H     0.92854   16.71081   14.40618
       O     1.65295   17.24314   14.00679
      H1     2.06932   16.57542   13.45594
       H     9.82769   10.39956   12.21511
       O    10.38016   10.94994   12.83029
      H1    11.29830   10.92589   12.51698
       H    12.14989   16.37523   10.39502
       O    11.16482   16.09085   10.42536
      H1    11.35305   15.15210   10.30136
       H     9.79503   16.42602   11.63960
       O     9.20262   16.71370   12.38439
      H1     9.80489   17.36992   12.78575
       H    11.51348   14.22440   15.65032
       O    11.28958   14.17526   14.68648
      H1    10.46568   13.72430   14.64700
       H     8.70086   14.76711    4.17745
       O     9.23660   15.37764    3.57400
      H1     9.45141   16.06709    4.23328
       H     8.20210   13.92897   12.33183
       O     9.00135   13.88191   12.92500
      H1     9.19504   14.82176   13.08462
       H     2.00322   14.59753   11.48729
       O     1.51119   15.44516   11.50758
      H1     0.68059   15.08390   11.93716
       H     9.13952   14.34543    6.99185
       O     9.28172   15.24128    7.28359
      H1     8.57565   15.78745    6.85215
       H     8.36760   19.13647    3.18066
       O     7.65060   18.92206    2.59141
      H1     7.79652   19.68491    2.04953
       H    13.78951   15.37140   11.40810
       O    14.06218   16.12306   11.90581
      H1    15.00527   16.12373   11.64551
       H     7.69072   17.67688    6.77678
       O     7.55546   16.90724    6.18274
      H1     6.64330   16.56059    6.45912
       H     5.16931   14.93569    5.63574
       O     5.07904   15.55590    6.45592
      H1     4.16376   15.85099    6.36523
       H     4.88522   15.19733   13.68027
       O     4.34757   15.43024   12.88099
      H1     4.71626   16.25203   12.57265
       H    14.35392   18.50018    8.17771
       O    15.21169   18.94487    8.09487
      H1    15.93583   18.28301    7.93958
       H     7.79626   17.13078   19.09211
       O     7.88327   18.03289   18.84704
      H1     8.39683   18.07057   18.03332
       H     9.57733   11.66518    8.04152
       O     8.93939   12.28902    7.61776
      H1     8.18766   12.32926    8.25075
       H    10.09204   19.05068   10.15383
       O     9.19949   18.64938    9.84061
      H1     9.15752   17.82952   10.35172
       H     6.54429   18.01274    8.73662
       O     7.02056   18.56035    8.13553
      H1     7.87986   18.63981    8.56446
       H    10.05826   17.26991    5.75572
       O    10.75495   16.71737    5.33589
      H1    10.56648   15.90257    5.86008
       H     8.89054   16.19577   16.43470
       O     9.18451   15.51348   17.05319
      H1     8.89941   14.68799   16.60800
       H     7.79623   12.32812    4.75258
       O     7.57077   13.28512    4.68792
      H1     6.68032   13.12131    4.26361
       H     0.55541   18.24830    9.94802
       O     0.56811   17.90440   10.90653
      H1     0.90683   16.99804   10.66365
       H     5.11899   15.71266   15.68676
       O     5.23155   14.75378   15.78255
      H1     6.19716   14.51712   15.85790
       H    10.84956   14.80748    3.02935
       O    11.50842   14.15235    2.75895
      H1    11.88550   14.51503    1.91404
       H    12.79426   18.86666   16.30051
       O    12.50195   17.99401   15.96820
      H1    13.26427   17.73790   15.45951
       H     7.02940   12.24576   10.31390
       O     6.87300   12.21017    9.35978
      H1     6.01687   12.61807    9.33358
       H     2.41791   17.80993    5.98068
       O     2.60856   16.89626    6.21866
      H1     1.94925   16.70779    6.93101
       H     1.62619   19.13021    8.45798
       O     0.76371   18.66935    8.29556
      H1     0.23691   19.26542    7.73329
       H    14.58433   17.12243    5.34068
       O    15.17769   16.38982    5.30379
      H1    14.61916   15.68870    4.85103
       H     4.67539   14.13737    7.86976
       O     4.59949   13.90464    8.83710
      H1     3.94689   13.19407    8.87325
       H    11.50448   16.98150    8.80537
       O    11.88534   17.64590    8.17388
      H1    11.12720   18.11089    7.81889
       H    12.64105   13.04589   14.12004
       O    13.13910   12.19151   14.25703
      H1    13.70899   12.40780   15.06724
       H     3.91903   16.13658    4.03243
       O     4.23617   15.30233    3.75131
      H1     5.09688   15.51445    3.36496
       H    14.02918   15.47954    6.44469
       O    13.23847   15.24328    6.97402
      H1    12.64645   16.06436    6.97267
       H    13.54180   12.09485    8.28982
       O    12.91888   11.30312    8.15732
      H1    13.25695   10.69525    7.51628
       H    10.83842   13.20143    6.34513
       O    11.67608   13.29168    5.89934
      H1    12.07582   14.02765    6.33186
       H     7.55613   14.07371    9.48389
       O     8.05524   14.83289    9.81261
      H1     8.39350   15.19170    8.99332
       H     5.13400   15.51507    9.21030
       O     5.69115   16.30504    9.48294
      H1     6.51137   15.75388    9.54379
       H    15.30687   12.86590    7.78726
       O    14.81336   13.35637    8.46474
      H1    14.50297   14.13188    7.94930
       H    13.56269   14.31330   16.09315
       O    14.44809   14.17118   15.76732
      H1    14.43502   14.91269   15.15935
       H    14.58818   17.26048   13.42749
       O    14.54483   17.23743   14.37573
      H1    15.29902   17.73672   14.66265
       H     5.16059   12.36207   11.81610
       O     5.88368   12.98478   12.10867
      H1     5.35238   13.70626   12.41627
       H     9.45122   10.99208    4.64403
       O     8.87932   10.58639    5.30329
      H1     8.77499   11.30062    5.94554
       H    17.97151   18.05779    7.91915
       O    17.35091   17.40998    7.63281
      H1    17.06406   17.68566    6.76319
       H    10.96628   12.01892   10.09274
       O    10.67094   11.31269    9.55003
      H1    11.47667   11.31301    9.00011
       H     8.15241   13.42325   14.63032
       O     7.84258   13.72377   15.51768
      H1     7.90169   12.87810   15.96954
       H    11.13062   18.53975    3.01477
       O    10.30293   18.98407    3.35380
      H1    10.68333   19.90680    3.33857

