180
frame 5 | Written by MDAnalysis XYZWriter (release 2.4.3)
       H   -14.12558   -2.91205   -3.90373
       O   -13.83534   -2.38726   -3.14568
      H1   -14.63436   -2.18203   -2.60738
       H   -17.45972   -1.26948    5.86828
       O   -16.62464   -1.08962    6.31259
      H1   -16.90907   -1.05855    7.23732
       H   -16.68966   -5.84641    0.59417
       O   -16.12184   -5.57283    1.35057
      H1   -15.71070   -6.35996    1.63154
       H   -19.14975    1.40049   10.89231
       O   -19.33496    2.34611   10.63199
      H1   -18.41545    2.71790   10.73897
       H   -11.12713   -2.42675    0.10213
       O   -10.84457   -1.57433   -0.26297
      H1   -10.02145   -1.33521    0.16462
       H   -12.46253    2.01296   -2.57353
       O   -12.30737    1.14349   -2.18060
      H1   -11.86073    0.61508   -2.87229
       H   -17.18796    0.64217   11.14057
       O   -17.66877    0.21677   11.84547
      H1   -17.61395    0.90083   12.54315
       H   -13.80606    2.41663    1.99184
       O   -14.41270    2.13162    2.69882
      H1   -14.26570    2.85905    3.36191
       H   -14.64571    4.22417   -0.66083
       O   -14.44939    3.69122    0.12463
      H1   -15.25233    3.75497    0.70634
       H   -13.90352    0.86907   -1.74008
       O   -14.86402    0.99657   -1.64121
      H1   -14.85919    1.48481   -0.83006
       H   -12.51530    2.57981    5.12004
       O   -12.65613    2.10838    5.95775
      H1   -12.79121    1.18731    5.60652
       H   -16.61513   -2.91487   -0.50623
       O   -17.14760   -2.78825   -1.35551
      H1   -18.09014   -2.69927   -1.03827
       H   -12.78586   -3.26090    0.73740
       O   -11.96784   -3.79778    0.78280
      H1   -11.94842   -4.08716    1.69956
       H   -13.30268   -6.79026    4.40274
       O   -13.78668   -5.94660    4.21452
      H1   -14.50641   -6.04803    4.87046
       H   -17.12197   -4.07433    3.94786
       O   -17.76197   -4.62968    4.47124
      H1   -18.48617   -3.98464    4.24031
       H   -11.19859    0.18371    8.21336
       O   -10.90013    1.03725    7.87960
      H1   -11.49779    1.26519    7.08796
       H   -19.11902   -6.29784    7.27825
       O   -18.71274   -7.17419    6.96828
      H1   -19.11939   -7.23681    6.11087
       H   -11.72352   -2.04917    3.61150
       O   -10.96657   -2.46634    4.01572
      H1   -11.14521   -3.40631    3.79174
       H   -16.49643    7.26786    5.46547
       O   -16.35488    7.42103    6.45445
      H1   -16.40629    8.40997    6.51785
       H   -12.23648    1.42961    0.53681
       O   -12.40920    0.55585    0.93515
      H1   -11.83821   -0.04831    0.42856
       H   -19.09658   -4.24205    6.48102
       O   -19.28446   -4.55695    7.40220
      H1   -19.55516   -3.76798    7.93848
       H   -18.05858    1.07736    0.34421
       O   -17.34827    1.10523    1.02256
      H1   -17.02827    0.18791    1.01713
       H   -15.59393   -4.23874    0.64924
       O   -15.10202   -3.54856    0.25952
      H1   -15.29135   -2.72506    0.81349
       H   -12.93136   -1.05498    4.95190
       O   -12.60521   -0.75592    5.84274
      H1   -11.90702   -1.40369    5.85765
       H   -16.79383   -6.54161    7.42157
       O   -15.96533   -6.04434    7.24448
      H1   -16.26430   -5.28864    7.77357
       H   -15.00408   -0.62671    0.80626
       O   -15.71846   -1.13059    1.14688
      H1   -15.59401   -0.81617    2.09301
       H   -16.84103    3.80772    2.18433
       O   -16.87319    3.85469    1.21413
      H1   -17.27005    2.92885    1.07835
       H   -15.18413    2.91910    6.16591
       O   -15.84593    2.22932    6.15318
      H1   -16.51375    2.62668    6.71110
       H   -10.31998    0.83536    3.07047
       O   -10.70878    1.63746    3.47635
      H1   -10.03664    1.84058    4.17684
       H   -18.10044   -5.98783    3.31089
       O   -18.70014   -6.34760    2.57956
      H1   -17.97732   -6.78294    2.12114
       H   -17.11338   -0.95481   -1.85340
       O   -17.12174   -0.10617   -2.39176
      H1   -16.12152    0.15947   -2.20827
       H   -14.75426    5.35634    1.42451
       O   -14.43926    5.91814    2.14012
      H1   -13.65982    6.41709    1.69169
       H   -19.15430    0.04289    4.19522
       O   -19.19427    0.02949    3.20651
      H1   -18.26373    0.06389    2.99294
       H   -17.02629    6.33008    8.27245
       O   -16.68696    5.70964    8.96687
      H1   -15.73916    5.86851    8.76769
       H   -10.28468    3.27272    1.07726
       O   -11.11454    3.39533    1.51686
      H1   -11.08476    2.79314    2.32428
       H   -13.19088   -4.09882    6.54404
       O   -12.51339   -4.71033    6.74814
      H1   -12.68479   -5.36645    6.06413
       H   -15.33530    4.13982    4.09473
       O   -14.48717    4.03285    4.54445
      H1   -13.87111    4.66142    4.09475
       H   -14.17783   -1.55793    3.38728
       O   -13.21014   -1.38449    3.18859
      H1   -13.16975   -0.68832    2.49710
       H   -17.78658   -7.04270   -1.49862
       O   -17.05740   -6.82632   -0.91205
      H1   -16.88828   -7.72541   -0.53462
       H   -11.34889   -6.10479    2.63852
       O   -11.29763   -5.29824    3.21818
      H1   -12.17710   -5.35929    3.62208
       H   -17.61226    2.32847   -2.64844
       O   -17.01183    2.87750   -3.11801
      H1   -17.53672    3.64645   -3.30737
       H   -15.36996    7.03137    3.11225
       O   -15.99876    7.65135    3.56441
      H1   -16.57629    8.04377    2.88138
       H   -15.53082    1.25261    8.20443
       O   -15.22996    0.74867    8.98891
      H1   -14.38145    0.37675    8.73284
       H   -18.78413    0.73220    8.90941
       O   -18.68606   -0.10132    8.39205
      H1   -19.49835   -0.54609    8.68363
       H   -13.58209   -1.20706   10.11769
       O   -13.28639   -1.29141    9.20032
      H1   -13.83512   -2.03133    8.90703
       H   -16.65279    6.84198   -1.00370
       O   -16.80483    6.81410   -0.06121
      H1   -17.57888    6.25944    0.05967
       H   -18.58761   -1.13627   -4.92641
       O   -18.34181   -0.18060   -4.83156
      H1   -17.75176   -0.28776   -4.03769
       H   -13.99786    4.03145    9.11128
       O   -14.60495    3.43128    9.57830
      H1   -14.45592    2.49744    9.17496
       H   -14.26865    6.80796    6.11486
       O   -13.54402    6.22218    5.88751
      H1   -14.00457    5.38618    5.64822
       H   -14.94390   -3.27398    4.52923
       O   -15.24205   -3.43735    3.62280
      H1   -14.67681   -4.18655    3.37877
       H   -15.01185   -2.28562    6.44026
       O   -14.23845   -2.77290    6.20559
      H1   -13.57229   -2.01717    6.25920
       H   -17.65365    4.09491    8.40749
       O   -17.77702    3.23187    7.96949
      H1   -18.79353    3.15436    7.95763
       H   -17.25777   -5.05957   -3.31267
       O   -18.05314   -4.53235   -3.09425
      H1   -17.67699   -3.73187   -2.61173
       H   -15.24933   -3.95219    9.04927
       O   -16.09484   -3.69019    8.61221
      H1   -16.64705   -3.61263    9.41561
       H   -14.02676    4.94832   -2.51989
       O   -14.96595    4.77337   -2.25664
      H1   -15.09915    3.89580   -2.65261
       H   -18.43821    0.82990   -1.45793
       O   -19.10894    1.25905   -0.92584
      H1   -19.83036    0.61871   -0.92249
       H   -19.34015    4.93899   -3.18827
       O   -18.67838    4.87007   -3.95999
      H1   -18.05240    5.59490   -3.86949
       H   -18.25141    4.57415    0.71027
       O   -18.94941    5.15973    0.35955
      H1   -19.50427    5.21697    1.14846
       H   -17.08221    3.12708    4.71029
       O   -17.23195    3.82722    4.02116
      H1   -17.91747    4.36197    4.37830
       H   -15.16704    0.70805    3.98566
       O   -15.61686   -0.22081    3.91112
      H1   -15.84931   -0.31466    4.82920

