180
frame 9 | Written by MDAnalysis XYZWriter (release 2.4.3)
       H     6.32160   -0.78765    5.27627
       O     6.48549   -1.64603    5.72185
      H1     6.05645   -1.43902    6.56906
       H    -0.66878   -0.01816    6.63111
       O    -0.61102    0.83313    6.15551
      H1    -0.88618    0.50877    5.29627
       H    -0.12934    3.05528   14.41070
       O    -0.93298    3.25143   14.85914
      H1    -1.03219    4.21706   14.75707
       H     5.51255    2.99302   17.02647
       O     5.56578    3.97967   17.04504
      H1     6.30522    4.08960   17.54039
       H     4.78348    1.40855   10.97758
       O     4.19311    0.66149   10.80686
      H1     3.75543    0.67969   11.68943
       H     1.72368    1.21376    7.32394
       O     2.08997    0.99905    8.21645
      H1     2.14830    1.83954    8.69472
       H     9.02690    5.01206   10.98737
       O     9.98905    4.87561   10.80606
      H1    10.08513    3.89144   10.70105
       H     9.58801   -0.61791   11.61951
       O     9.31680    0.19725   12.09800
      H1    10.01268    0.10955   12.81881
       H     3.27500   -2.45622   14.07348
       O     3.91873   -2.30532   14.83000
      H1     3.30518   -2.21829   15.63746
       H     5.39387    5.76881   10.18552
       O     5.75483    5.76583    9.33796
      H1     5.47350    4.91399    8.96197
       H     3.50126    7.49610    9.56380
       O     3.25308    7.73462   10.52273
      H1     3.90638    7.34882   11.06689
       H    -0.83062    3.31963   10.03132
       O    -0.32856    4.08069   10.35502
      H1    -0.90194    4.80446   10.15735
       H    -1.60017    1.50007   15.08246
       O    -1.77346    0.71526   15.69606
      H1    -2.49870    1.08377   16.26842
       H     1.36407    3.90222    9.74767
       O     2.18631    3.53968    9.55582
      H1     2.71010    3.68227   10.37835
       H     2.37339   -1.60652   17.94845
       O     2.64527   -2.29630   17.33724
      H1     3.34971   -2.83450   17.78588
       H     5.46059   -0.59190   11.33675
       O     6.08933   -1.32285   11.13097
      H1     6.36463   -1.52453   12.03947
       H     4.65390    2.80943    7.59337
       O     4.49585    3.75500    7.53002
      H1     3.63797    3.74952    8.03758
       H    -1.24183   -2.44413   10.62372
       O    -1.19478   -3.35653   10.31131
      H1    -1.98666   -3.42388    9.78558
       H     0.87023   -0.27254    8.33041
       O     0.20804   -1.00546    8.38628
      H1    -0.20962   -0.79965    9.19782
       H     6.10223    6.48470   11.90196
       O     5.12403    6.47976   12.02134
      H1     4.84113    5.54634   12.09024
       H     0.97638    1.09739   12.20551
       O     1.36386    0.27912   11.89072
      H1     2.07964    0.61352   11.39511
       H     1.19154    1.14939    5.11471
       O     1.92669    1.63296    5.44131
      H1     2.47811    0.84947    5.58100
       H    -2.09572    1.94007   13.25586
       O    -2.26154    1.36828   12.54639
      H1    -3.25108    1.21907   12.52397
       H     6.89484   -1.50697   13.95121
       O     7.22347   -2.15766   13.34723
      H1     6.83771   -2.99233   13.58771
       H     2.68512    4.99061   12.42896
       O     3.11654    4.27135   11.96336
      H1     3.52458    3.82968   12.75827
       H     4.19755   -0.46075    5.47126
       O     3.35033   -0.68614    5.93014
      H1     3.69708   -0.93977    6.80817
       H     7.33152    1.21278   12.75051
       O     6.77842    1.08637   13.54041
      H1     6.38567    1.98608   13.52517
       H     0.13682    0.71279   16.16571
       O     0.92206    0.50618   16.69099
      H1     1.38435    1.34947   16.76203
       H     4.21719    6.98703   15.82968
       O     4.26738    6.04662   15.66526
      H1     4.74475    5.66497   16.40712
       H     0.10945   -2.79659   13.22444
       O    -0.76293   -3.10997   12.93915
      H1    -0.59633   -3.53583   12.03474
       H    -0.95584    1.15187    8.90754
       O    -1.48133    1.93323    8.86313
      H1    -1.38173    2.38939    7.96130
       H     6.66621    1.29573   17.58141
       O     5.73996    1.48501   17.89496
      H1     5.89382    1.89532   18.76894
       H     6.70147    1.66743    7.18545
       O     5.94314    1.51112    7.73232
      H1     6.29747    1.18520    8.57795
       H     2.56715   -4.20356    9.02467
       O     2.78602   -4.97987    8.47581
      H1     3.22306   -4.53376    7.72602
       H     1.95829   -2.83582   12.26376
       O     1.84008   -2.47596   13.19411
      H1     1.60528   -1.58798   12.99536
       H     3.50044    2.87807   17.31838
       O     2.57422    2.92812   16.98832
      H1     2.44614    3.85807   17.24598
       H    11.24815    1.65337   10.57607
       O    10.43288    2.23590   10.59269
      H1     9.92231    1.82297   11.28022
       H     1.99108   -2.12473    9.03482
       O     1.96879   -2.63394    9.86594
      H1     1.09041   -3.02717    9.97502
       H     1.69950   -6.12190   12.20176
       O     1.48884   -5.43411   11.58519
      H1     1.65020   -5.85406   10.69936
       H     5.02354    0.19342   13.71781
       O     4.07810    0.19658   13.83518
      H1     4.05216   -0.66883   14.29539
       H     1.78004    2.49988   13.32327
       O     0.90232    2.65434   12.90326
      H1     1.05178    3.51705   12.42229
       H     9.57355   -1.18404    7.38658
       O     8.67329   -1.19006    7.78105
      H1     8.20915   -1.40960    6.95822
       H     4.46316   -0.72103    9.01957
       O     4.82515   -1.11192    8.25035
      H1     5.12166   -1.92925    8.59896
       H     7.34778   -3.84977    8.70395
       O     8.31590   -3.95900    8.58469
      H1     8.61008   -3.18501    8.03689
       H     0.94015   -4.95304   13.96224
       O     0.54413   -5.11295   14.84441
      H1    -0.40774   -5.11753   14.72512
       H     7.90133    1.31664   15.55632
       O     7.93255    0.94453   16.44459
      H1     7.72633   -0.04055   16.39481
       H     6.20025   -1.56103   16.33296
       O     7.16321   -1.49625   16.24797
      H1     7.36976   -2.40665   16.11370
       H    -1.83041    0.01849   11.26283
       O    -1.14730   -0.57489   10.82928
      H1    -0.41003   -0.50432   11.47785
       H     1.13010    6.04844   14.30508
       O     1.99548    6.35256   13.92464
      H1     2.62389    6.01281   14.54562
       H     6.83557   -5.88907   13.39296
       O     6.35745   -5.03806   13.45765
      H1     5.87729   -5.17011   12.61700
       H     6.03247    4.49637   13.61478
       O     5.83203    3.88927   12.86708
      H1     6.56555    4.00386   12.26950
       H     7.58368    2.92203    9.95219
       O     7.29307    3.56453   10.57481
      H1     7.32054    4.37389   10.06734
       H     3.55427    1.77397   14.50093
       O     3.20696    2.68693   14.33383
      H1     2.94899    2.92261   15.24316
       H     9.53505   -2.16032    9.96261
       O    10.25753   -2.17955   10.60737
      H1    10.97088   -2.21431    9.91770
       H     4.08364   -4.53246   15.57353
       O     4.57745   -5.35290   15.36806
      H1     5.13154   -5.03023   14.62251
       H     9.57581   -1.75595   14.72323
       O     9.92337   -2.31688   14.00286
      H1     9.02415   -2.44852   13.66190
       H     6.23965    5.97616   14.69659
       O     6.84254    5.25447   14.92858
      H1     6.33349    4.85424   15.63623
       H     5.36963   -4.06433    9.95752
       O     5.73707   -3.42212    9.39586
      H1     5.92760   -2.70637   10.02939
       H     5.76414   -6.53704   10.65014
       O     5.24559   -5.85813   11.08815
      H1     4.32756   -6.22043   11.23383
       H     8.76000    0.19268    8.75340
       O     8.50405    1.13075    8.96134
      H1     9.25538    1.56808    9.36105

