180
frame 10 | Written by MDAnalysis XYZWriter (release 2.4.3)
       H    -3.86023   -3.02480  -11.79592
       O    -3.16625   -3.49748  -11.31500
      H1    -2.34701   -3.04433  -11.61429
       H     3.85361   -4.82434   -5.01299
       O     4.66661   -5.24060   -4.70124
      H1     5.05590   -5.41305   -5.55659
       H     7.40056   -6.79891  -12.44548
       O     7.97161   -5.96639  -12.66650
      H1     8.50506   -5.87198  -11.88938
       H     8.74725   -4.07763  -15.64300
       O     8.32813   -3.22453  -15.79071
      H1     7.88758   -2.93352  -14.95954
       H     1.59808   -8.04298   -3.66101
       O     2.44573   -7.62807   -3.50543
      H1     2.68161   -7.41826   -4.41493
       H     8.27411   -8.36440  -11.58984
       O     7.76511   -8.20832  -10.72522
      H1     8.35684   -7.56657  -10.33840
       H     3.56370   -4.54507   -9.35873
       O     2.80280   -4.72997   -9.86033
      H1     2.87519   -5.61464  -10.29161
       H     1.54030   -4.79537   -5.26717
       O     2.20228   -4.05214   -5.28962
      H1     2.18887   -3.81638   -4.32775
       H    -0.47894   -3.48050   -8.64754
       O    -0.53423   -2.62324   -9.01360
      H1    -1.27994   -2.18991   -8.58367
       H    -0.75687   -5.72409   -9.57203
       O    -1.35180   -6.47871   -9.87014
      H1    -2.25339   -6.10490   -9.99582
       H     1.33415   -2.67194   -5.83078
       O     0.91151   -1.78744   -5.76936
      H1     1.01380   -1.37730   -6.62546
       H     3.63126   -9.24533   -9.02343
       O     3.49889   -8.36799   -9.42908
      H1     4.30871   -7.90944   -9.26532
       H     1.43034   -4.97542   -8.80064
       O     0.55842   -4.99462   -8.31705
      H1     0.84211   -5.05005   -7.42838
       H     1.03671   -3.15061   -2.63024
       O     1.94344   -3.40775   -2.82934
      H1     2.28965   -3.98389   -2.15015
       H     4.18791   -5.05489   -2.84044
       O     3.61876   -5.40765   -2.14561
      H1     3.10115   -6.06995   -2.59887
       H     5.47817   -3.38426   -8.30527
       O     4.56701   -3.30350   -7.98306
      H1     4.06102   -2.64440   -8.46281
       H     5.87231   -6.21981  -16.95481
       O     5.02482   -6.40820  -16.57000
      H1     5.08126   -6.12558  -15.63769
       H     3.02010   -0.42648   -3.36068
       O     2.43056   -0.04042   -4.03355
      H1     1.88384   -0.79426   -4.41276
       H     5.32408    0.05824   -8.84453
       O     5.58115   -0.33385   -9.71309
      H1     4.80952   -0.15947  -10.30328
       H     6.87617   -6.78454   -7.14666
       O     6.16005   -6.19885   -6.95183
      H1     6.47925   -5.35938   -7.32582
       H    -0.80854   -2.72186   -5.75099
       O    -1.57056   -2.86910   -5.19244
      H1    -2.33261   -2.59902   -5.67454
       H     2.21403   -0.72525  -14.11565
       O     2.76466   -0.87608  -14.93152
      H1     2.75600   -0.03152  -15.38083
       H     2.98643  -11.11871   -7.12640
       O     2.89135  -10.70293   -8.01431
      H1     2.05602  -10.89242   -8.33488
       H     6.51150   -3.53724  -13.24562
       O     7.13983   -2.79085  -13.21369
      H1     6.53505   -2.19554  -13.60574
       H     8.66357   -5.53907   -4.52166
       O     9.08410   -6.30840   -4.83868
      H1     9.00373   -6.22839   -5.76968
       H     7.72879   -3.40675   -8.13223
       O     7.18820   -4.01880   -8.59002
      H1     7.03983   -3.59435   -9.44527
       H     4.60064   -8.07378   -6.41550
       O     3.68820   -7.96851   -6.04411
      H1     3.11908   -8.41204   -6.65988
       H     2.51300   -0.92447  -11.29740
       O     3.04718   -1.74143  -11.40597
      H1     2.71401   -2.31187  -10.72493
       H     7.01554   -0.17890   -5.49374
       O     7.83217   -0.69027   -5.40415
      H1     8.24165   -0.26713   -4.59830
       H     0.96148    1.23713   -9.58155
       O     1.62307    0.77111  -10.08320
      H1     2.37540    1.37435  -10.29133
       H     1.90742   -7.83377   -7.90551
       O     1.22601   -8.05589   -7.19180
      H1     0.48433   -8.45543   -7.59988
       H     2.95913   -7.72768  -11.00701
       O     2.73029   -6.98846  -11.57870
      H1     1.77859   -7.04530  -11.74230
       H     0.73335  -11.10454  -10.82718
       O     0.81214  -11.47038   -9.95584
      H1     0.28934  -10.78808   -9.53666
       H     9.39051   -8.06586   -7.16531
       O     8.99253   -7.21326   -7.48912
      H1     9.41222   -6.96539   -8.29951
       H     3.97159    1.17605  -12.10638
       O     4.02079    1.37201  -11.13865
      H1     4.13155    2.35557  -11.14863
       H     6.86509    0.88307  -10.26152
       O     7.49113    1.62111  -10.33363
      H1     7.22248    2.24930   -9.66245
       H    -0.92730   -8.63067   -9.02821
       O    -0.81357   -9.33743   -8.42237
      H1    -1.35436   -9.18998   -7.60725
       H     1.11741    0.43325  -11.82841
       O     0.82094   -0.10885  -12.61013
      H1     0.53329   -0.99935  -12.28056
       H     6.33792   -4.18770   -1.83733
       O     6.36876   -3.29087   -2.24780
      H1     6.79819   -3.42086   -3.10463
       H    10.38033   -1.59082  -11.08413
       O     9.74577   -2.24709  -11.45644
      H1     8.90573   -2.20294  -10.94321
       H     7.17792  -10.72060   -8.89110
       O     7.79959   -9.98680   -8.72723
      H1     7.86856   -9.47405   -9.51586
       H     9.08233   -1.20390   -8.31893
       O     8.82218   -2.03037   -7.83414
      H1     8.80257   -1.75014   -6.90328
       H    11.99453   -3.40833   -8.00640
       O    11.37007   -3.45726   -8.73118
      H1    10.58253   -3.00719   -8.44396
       H     2.55847   -7.69519  -14.63661
       O     3.23637   -8.10670  -13.99953
      H1     3.09773   -7.59862  -13.20086
       H     4.68289   -5.81459  -12.74247
       O     5.33349   -6.14306  -13.37527
      H1     4.87712   -6.91910  -13.75570
       H     4.29505   -2.16541   -6.29663
       O     4.68281   -1.47473   -5.69527
      H1     4.01015   -1.11586   -5.03380
       H    -0.65843   -2.35916  -11.05169
       O    -0.87401   -2.32616  -11.98230
      H1    -0.44692   -3.12854  -12.28364
       H     0.46524   -6.87730   -6.27826
       O     0.35974   -6.02855   -5.71108
      H1    -0.29871   -6.14326   -5.01894
       H     4.43426   -9.58099   -4.67963
       O     4.00691  -10.10134   -3.98737
      H1     3.32525   -9.46846   -3.75252
       H     2.89415   -4.35406  -14.94254
       O     2.29863   -4.77478  -15.59263
      H1     1.86534   -4.04183  -16.07866
       H     6.68526   -1.51068  -10.27730
       O     7.24980   -2.23255  -10.58720
      H1     6.97557   -2.46208  -11.50401
       H     3.45274   -2.40722  -14.40605
       O     3.61649   -3.15214  -13.75978
      H1     3.67250   -2.65431  -12.95471
       H    -0.51218   -6.84609  -11.46501
       O    -0.12099   -6.98645  -12.31947
      H1    -0.51031   -7.83502  -12.64561
       H    10.08352   -5.51136  -10.15427
       O     9.16167   -5.76598   -9.89497
      H1     8.76185   -4.95275   -9.63100
       H     0.15265   -5.33489  -13.22709
       O     0.33235   -4.40369  -13.53825
      H1     0.76871   -4.66860  -14.35605
       H     6.95406   -9.43842   -7.11390
       O     6.47395   -9.04335   -6.41077
      H1     6.95025   -9.38685   -5.65634
       H     5.62530   -6.44638   -8.62617
       O     5.45555   -6.67535   -9.59639
      H1     6.21477   -7.16918   -9.83979
       H     6.62450   -4.54642   -4.80342
       O     7.39810   -3.94749   -4.72181
      H1     7.16573   -3.05949   -5.09211
       H     4.89522    0.06586   -6.63184
       O     5.09951    0.79407   -7.28111
      H1     4.59081    1.55886   -7.04506
       H     2.26931   -0.51260   -8.48480
       O     2.06980   -1.36127   -8.12220
      H1     1.39961   -1.66689   -8.73939

