180
frame 4 | Written by MDAnalysis XYZWriter (release 2.4.3)
       H    -1.36448    1.50913   14.23054
       O    -1.62109    2.41223   14.03651
      H1    -0.83266    2.84446   13.70311
       H    -7.40442    1.68748    8.78358
       O    -7.08680    1.43032    9.65111
      H1    -7.89172    1.79305   10.05123
       H    -5.69350    4.93635   17.22179
       O    -5.27658    5.23066   18.02354
      H1    -4.36168    5.02123   17.78057
       H    -2.17417    5.16061   18.47230
       O    -2.45440    4.81394   17.58069
      H1    -1.74835    4.24077   17.31784
       H    -1.77384   -8.00755   16.25959
       O    -1.19076   -7.26325   16.38216
      H1    -1.12414   -6.95226   15.42198
       H    -3.05196   -2.00989    9.93449
       O    -3.46654   -2.89353    9.94120
      H1    -3.58585   -3.07986    8.99427
       H     0.53693    3.44449   16.22306
       O    -0.18558    2.95099   16.67219
      H1    -0.65292    2.55132   15.90444
       H   -12.68530   -1.90613   16.25155
       O   -12.82110   -0.93166   16.12746
      H1   -12.25995   -0.75434   15.35908
       H    -2.42969    0.55407   17.02084
       O    -1.81242   -0.08453   17.31864
      H1    -1.52762    0.37349   18.11897
       H    -7.24975   -4.22409   15.10735
       O    -6.43026   -4.16482   14.59136
      H1    -6.12341   -3.25449   14.83292
       H   -10.27152    3.92245   13.98796
       O    -9.98778    4.59493   13.32860
      H1   -10.23678    5.35999   13.79547
       H    -9.88284    1.54214   15.67923
       O   -10.21221    2.40676   15.58644
      H1   -10.27715    2.83205   16.48178
       H    -1.87229   -3.68538   10.87272
       O    -1.09422   -3.86540   11.43681
      H1    -0.70958   -4.59666   10.87756
       H    -3.84464   -3.15673   12.37195
       O    -4.62640   -2.62625   12.37390
      H1    -4.66366   -2.47803   11.43710
       H   -11.38409   -0.71664   11.07068
       O   -11.06537   -1.16929   10.27291
      H1   -11.91411   -1.31517    9.77816
       H   -12.70954   -3.84295   15.38780
       O   -12.29283   -3.74354   16.25971
      H1   -12.85509   -4.38872   16.69985
       H    -3.86684   -8.32041   15.85378
       O    -3.93817   -8.13707   16.84589
      H1    -4.87838   -8.11494   17.11772
       H    -3.39798    2.39457   12.49867
       O    -4.02252    1.79265   12.01239
      H1    -3.82823    0.92866   12.32378
       H    -4.86815    3.85819   10.53937
       O    -5.58760    4.03725    9.93777
      H1    -6.08005    3.18375   10.04246
       H    -7.09936   -5.48249   17.47583
       O    -7.15905   -5.01918   18.31277
      H1    -8.12777   -5.06124   18.46024
       H   -10.29945   -1.25006   19.21340
       O   -10.45268   -1.91479   18.54095
      H1   -11.42439   -1.78703   18.38672
       H    -8.56542    3.03286   14.23018
       O    -7.88276    2.65185   13.67164
      H1    -7.73269    1.73501   13.99281
       H    -7.74585   -7.03010   15.97178
       O    -8.42581   -6.35823   15.75524
      H1    -8.81428   -6.67128   14.93546
       H    -6.44892   -8.57759   18.18355
       O    -6.64787   -8.06222   17.33652
      H1    -6.87016   -8.86132   16.81595
       H    -2.31485   -1.63933   17.31399
       O    -2.58808   -2.60560   17.28382
      H1    -1.83328   -3.01236   16.77561
       H   -11.36116    0.59528   12.74028
       O   -11.41673   -0.34082   12.88815
      H1   -10.49713   -0.47832   13.14769
       H    -9.76652   -6.38853   16.86921
       O   -10.72781   -6.49413   17.12905
      H1   -10.80745   -7.29022   17.69426
       H    -9.48491   -4.17453   14.57437
       O    -9.36371   -3.38339   15.13159
      H1   -10.18543   -3.50164   15.67051
       H    -5.65500   -3.74536   18.01851
       O    -5.35150   -2.90271   17.72972
      H1    -4.40859   -3.19503   17.41482
       H     0.62665   -2.86026   13.64000
       O    -0.37307   -2.71975   13.66541
      H1    -0.59201   -3.18324   12.87674
       H    -8.85932    2.46280   11.79334
       O    -9.22094    2.57877   10.90041
      H1   -10.18790    2.56110   11.06473
       H    -6.01316   -5.25456   12.96401
       O    -5.87101   -5.40399   12.00021
      H1    -6.44662   -6.13897   11.76892
       H    -5.03435   -1.42365   15.01341
       O    -5.88776   -1.43049   15.47931
      H1    -5.82700   -2.03469   16.15611
       H    -8.51230   -0.19512   16.15609
       O    -9.32621   -0.01472   16.66103
      H1    -9.59423   -0.89742   16.95415
       H    -4.50189   -0.91981    8.07233
       O    -5.35757   -0.53684    7.75162
      H1    -5.56577   -0.16644    8.62593
       H    -9.07971   -1.26324    9.59816
       O    -8.68304   -1.20507    8.73602
      H1    -8.12225   -0.40963    8.86306
       H     0.94324    0.92460   18.97414
       O     0.21320    1.47868   19.07797
      H1     0.05665    1.87509   18.18254
       H    -0.86095   -0.98035   13.97926
       O    -1.21738   -0.21211   14.45947
      H1    -1.39650   -0.61117   15.31740
       H    -5.65016    4.45690   15.03648
       O    -6.44134    4.43738   15.53628
      H1    -6.95052    3.66490   15.16741
       H    -8.90234   -3.26761   11.71365
       O    -8.43976   -4.06175   11.40487
      H1    -7.63596   -3.89837   11.87403
       H    -5.96770    0.26854   12.48419
       O    -6.63389   -0.09925   11.87061
      H1    -6.60031    0.29580   11.00385
       H    -8.18592    4.48266   19.17260
       O    -7.80474    4.37636   18.27559
      H1    -7.02837    4.90940   18.44231
       H    -3.25621    5.05100   14.42674
       O    -3.87162    4.50633   13.91071
      H1    -4.13414    5.21377   13.27233
       H    -0.58149   -3.87797   14.94346
       O    -0.56061   -4.25903   15.84761
      H1     0.22106   -3.78403   16.20066
       H     0.09610   -5.57768   14.29984
       O    -0.39948   -6.23308   13.78221
      H1    -1.05650   -5.69015   13.29577
       H    -4.40470    1.50004   15.86408
       O    -3.53990    1.82910   16.13285
      H1    -3.17845    1.97280   15.23079
       H    -7.52004   -2.44657    8.58020
       O    -7.25024   -3.43086    8.58451
      H1    -7.45619   -3.66323    9.51304
       H    -8.73711    0.10093   18.46747
       O    -8.49846    0.03646   19.39419
      H1    -7.85181   -0.65743   19.39439
       H   -11.41797   -2.83750   11.42672
       O   -11.83142   -3.76161   11.48855
      H1   -11.28170   -4.20057   12.24116
       H    -8.77434   -2.13316   13.93600
       O    -8.85961   -1.63407   13.06367
      H1    -7.97134   -1.27498   12.89287
       H    -7.40238    1.37444   18.62755
       O    -6.84683    1.84176   18.04278
      H1    -7.13865    2.78152   18.24236
       H    -2.58606    0.42165   10.13234
       O    -2.11206   -0.27825   10.63737
      H1    -1.79561    0.21867   11.41399
       H    -4.01273   -5.36824   19.62304
       O    -4.44580   -5.59984   18.76983
      H1    -3.70662   -6.00090   18.22051
       H    -3.00174   -0.30106   13.67965
       O    -3.96250   -0.34440   13.70103
      H1    -4.11155   -1.15888   13.20761
       H    -7.05698    1.26200   16.35378
       O    -7.23489    0.86359   15.46949
      H1    -6.54696    0.22308   15.49986
       H    -4.67276   -6.57735    9.69495
       O    -4.08773   -5.90711    9.28795
      H1    -4.13667   -5.10881    9.78008
       H    -3.50739   -5.69189   13.70302
       O    -3.28776   -6.01041   12.81973
      H1    -4.16750   -6.14654   12.36010
       H    -9.65572   -5.22781   12.62760
       O   -10.30345   -5.06273   13.31692
      H1   -10.77553   -5.92357   13.45403
       H    -9.92231   -3.73481   18.96203
       O    -9.81679   -4.67670   19.12248
      H1   -10.34664   -4.90178   18.36621
       H    -3.74293   -5.54865   16.05536
       O    -3.75927   -4.98758   15.25163
      H1    -4.69304   -4.74201   15.26775

