180
frame 0 | Written by MDAnalysis XYZWriter (release 2.4.3)
       H    11.40568  -16.39648   16.24897
       O    11.24730  -16.09314   17.18443
      H1    10.45605  -15.48388   17.13976
       H    17.93490   -8.79221   16.26886
       O    18.88594   -8.88923   16.57065
      H1    19.28465   -8.90046   15.64526
       H     9.64424  -14.10609   15.94964
       O     9.00916  -14.53432   16.50428
      H1     8.50462  -13.78131   16.75084
       H     7.76388   -8.92612    8.64656
       O     7.90166   -8.04967    9.07356
      H1     8.13214   -8.22529   10.01700
       H    10.90269  -12.56734   18.73356
       O    10.12410  -12.08865   19.01472
      H1    10.19329  -12.24364   19.98971
       H    11.36184   -2.00793   16.19162
       O    10.59756   -2.01609   16.80832
      H1    10.57331   -2.95882   17.02608
       H     6.50517   -8.66651   18.64195
       O     5.71179   -8.42304   18.15945
      H1     5.06629   -9.11824   18.30301
       H    11.91091   -4.81068   13.90498
       O    12.55315   -4.72527   14.59216
      H1    11.97006   -4.60325   15.39381
       H    14.30025  -13.62163   12.17549
       O    14.01327  -14.47067   11.75939
      H1    13.63563  -14.13888   10.94019
       H    15.23546   -6.74670   19.33241
       O    14.88719   -5.95134   18.87304
      H1    15.30369   -5.86386   18.07296
       H    16.21273  -12.81881   17.61511
       O    16.45496  -12.86614   18.53995
      H1    17.16032  -12.14143   18.52025
       H    12.89465  -10.83061   10.82658
       O    12.26272  -11.53168   10.91588
      H1    11.46912  -11.12430   10.47486
       H     6.31190   -4.81891   18.26226
       O     5.46103   -5.15578   17.98707
      H1     5.46282   -4.74302   17.09983
       H    13.71599  -12.01125   13.44281
       O    14.60044  -12.26877   13.16933
      H1    14.92462  -12.73835   13.89623
       H    15.35793  -15.47202   18.03344
       O    15.50113  -15.70861   17.12711
      H1    16.04598  -16.48188   17.29978
       H     6.14085   -6.34649   16.82799
       O     6.50480   -6.86456   16.05367
      H1     6.38916   -7.71828   16.49652
       H     8.43156   -6.90111   17.35806
       O     8.89357   -6.23998   17.93939
      H1     8.70678   -6.61009   18.79946
       H     7.99135   -3.22432   19.03296
       O     7.67280   -4.06030   19.43472
      H1     8.40918   -4.61341   19.19456
       H    11.09608  -15.96877   12.19383
       O    11.49617  -15.58449   12.93751
      H1    12.26603  -15.17691   12.52866
       H    10.55705   -6.22882   11.60736
       O    10.41263   -5.60189   12.38135
      H1     9.52014   -5.29161   12.23108
       H    18.38210   -6.09445   18.05957
       O    18.31655   -6.48562   19.01420
      H1    17.74618   -5.75198   19.38072
       H    12.64297  -13.61366   15.32082
       O    13.43508  -14.22115   15.30291
      H1    13.26383  -14.78022   16.05559
       H     9.01085   -9.68673   18.45904
       O     8.26390   -9.16623   18.82879
      H1     8.38385   -9.27557   19.79831
       H    17.68487  -15.36008   19.38082
       O    18.20355  -14.94488   18.66812
      H1    17.61185  -14.25392   18.40770
       H    16.96034   -7.29372   12.56590
       O    16.90153   -7.46942   13.51514
      H1    16.00697   -7.72893   13.52787
       H     9.72377  -13.21731   13.92105
       O    10.44037  -13.67026   14.47045
      H1    10.64502  -14.45652   13.92623
       H     8.54550  -11.32822   13.94832
       O     8.25466  -12.08239   13.46687
      H1     7.49523  -12.42306   14.02675
       H    16.35415  -11.71930   13.71839
       O    17.29089  -11.56304   13.83051
      H1    17.54657  -10.88970   13.21881
       H    15.73779   -9.64930   19.61432
       O    15.96141   -8.91025   19.02575
      H1    16.95067   -8.93575   18.93328
       H     4.86025   -9.23029   14.76009
       O     5.44174  -10.02286   14.86666
      H1     5.21113  -10.27066   15.78604
       H    15.85740   -6.39471   15.58349
       O    16.37611   -5.79084   16.20748
      H1    17.35007   -6.08052   16.19269
       H    15.16827  -15.36581   13.14917
       O    15.75085  -15.30828   13.91024
      H1    15.32109  -15.14178   14.75583
       H    15.98754   -9.49090   17.42029
       O    15.96883   -9.72358   16.51359
      H1    15.58744   -8.91295   16.16623
       H    10.58825   -6.93606   13.35292
       O    11.06189   -7.69768   13.87430
      H1    10.41832   -7.93560   14.51470
       H    11.32386   -5.02449   17.82522
       O    10.96516   -4.87155   16.98373
      H1    10.14148   -5.36097   17.14809
       H     9.08110  -11.47935   10.74530
       O     9.18698  -10.64473   10.29185
      H1     8.74522  -10.85649    9.45179
       H     6.26862   -6.07103   14.51395
       O     5.88219   -5.80498   13.66483
      H1     5.98356   -6.58081   13.09324
       H    12.79376   -3.06991   15.01487
       O    12.96096   -2.31452   15.59775
      H1    12.70257   -1.57991   15.01284
       H     4.92835  -12.08559   17.72178
       O     5.45537  -11.60098   17.05295
      H1     6.38404  -11.73575   17.40511
       H    18.67839  -10.69135   17.33348
       O    18.69307  -11.22181   18.11287
      H1    18.43991  -10.59127   18.80730
       H    16.01190  -11.52878   10.47499
       O    16.16831  -10.53818   10.43393
      H1    15.36479  -10.25132   10.91783
       H    11.24512  -17.59668   17.70718
       O    11.38527  -18.46118   18.11413
      H1    10.96557  -18.35496   19.00011
       H    11.22647   -6.62041    9.45469
       O    10.85172   -7.22855   10.14229
      H1    10.36648   -7.86970    9.61086
       H    11.78039   -6.82661   18.15046
       O    12.27946   -7.17410   18.92307
      H1    13.19239   -7.07227   18.69353
       H    10.33357   -8.55494   12.51817
       O     9.45571   -8.94015   12.26141
      H1     9.68408   -9.52458   11.51426
       H    15.75633  -11.54337   16.16745
       O    15.71386  -12.54638   16.00460
      H1    14.71425  -12.78631   15.96080
       H    13.75446   -9.19698    9.94498
       O    13.63236   -9.27550   10.89976
      H1    13.49600   -8.34076   11.22541
       H    13.68157   -7.70707   14.92996
       O    14.47251   -7.13435   14.81761
      H1    14.18208   -6.28401   14.50980
       H    11.52789   -9.59287   18.42441
       O    11.21326   -9.81127   17.54709
      H1    10.83348  -10.73183   17.68713
       H     8.80568   -1.16175   15.28496
       O     8.35111   -1.98919   15.09561
      H1     8.48795   -2.29112   15.99288
       H     7.37886   -9.26761   14.56070
       O     8.37596   -9.21160   14.72777
      H1     8.67859   -9.19711   13.83176
       H    13.41555   -1.72302   17.84152
       O    13.65940   -1.29566   18.64755
      H1    14.58208   -1.56606   18.88524
       H     7.43338  -13.34229   18.60211
       O     7.60569  -12.65668   17.94608
      H1     8.42118  -12.21725   18.43169
       H     3.52883  -11.97173   13.40699
       O     4.45687  -12.01004   13.36178
      H1     4.80666  -11.29620   14.00083
       H     7.12171   -4.86836   12.82511
       O     7.60471   -4.44688   12.09732
      H1     7.75911   -3.55256   12.37820
       H    12.10913  -14.61605   18.02001
       O    12.16229  -13.63704   18.24037
      H1    12.90984  -13.57535   18.90384
       H     6.01486  -12.60686   15.75937
       O     6.19114  -13.11776   14.98868
      H1     5.40464  -12.98683   14.40737
       H     8.23252  -15.60180   17.65507
       O     8.07252  -16.36837   18.28443
      H1     7.15983  -16.61386   18.12713
       H     7.96969  -15.52415   15.18824
       O     7.42563  -16.13827   14.62332
      H1     7.98642  -16.90231   14.31122
       H    12.05101  -16.71754   14.19188
       O    12.38659  -17.30316   14.90684
      H1    12.04488  -18.14131   14.55563

