180
frame 1 | Written by MDAnalysis XYZWriter (release 2.4.3)
       H    13.14842  -16.69485  -18.22383
       O    13.80154  -16.47845  -18.93366
      H1    14.44781  -17.23937  -18.72934
       H    17.27209  -18.74461  -19.15401
       O    17.59196  -19.34814  -19.80761
      H1    18.44754  -18.94656  -19.97574
       H    14.49552   -9.35845  -12.85161
       O    14.34611   -8.86171  -13.67556
      H1    14.70350   -8.03983  -13.32683
       H     7.43105  -17.93730  -10.94200
       O     8.34036  -17.99834  -11.39645
      H1     8.97107  -17.69288  -10.71144
       H    10.51554   -7.54193  -17.94655
       O    11.28239   -8.10157  -17.73883
      H1    11.68176   -8.10777  -18.61623
       H    17.97680  -17.05932  -11.65762
       O    17.59745  -17.34963  -10.77994
      H1    16.61213  -17.28137  -10.95488
       H    15.47286  -19.17075  -17.11495
       O    15.95265  -18.39799  -17.35215
      H1    15.90616  -17.79016  -16.59176
       H    12.62611  -10.75175   -9.51445
       O    13.55265  -10.91257   -9.25328
      H1    13.77763  -10.12919   -8.72448
       H     5.97327  -18.30931  -15.43377
       O     5.09751  -18.07615  -15.07073
      H1     5.16879  -17.20490  -14.65536
       H     5.89049  -18.14807   -9.14765
       O     5.88888  -17.69408  -10.08520
      H1     5.77910  -16.82144   -9.74190
       H     4.10615  -15.23507  -13.92647
       O     4.93326  -15.65598  -13.63607
      H1     5.51559  -14.88868  -13.47223
       H    13.97201  -19.16934   -8.46830
       O    14.84310  -19.51277   -8.71811
      H1    15.21337  -19.73988   -7.82451
       H    16.88947  -16.32425  -15.36788
       O    16.14282  -16.85650  -15.19638
      H1    16.25295  -17.71840  -14.68460
       H    11.73197  -13.58518  -15.87605
       O    12.51147  -13.95024  -16.22739
      H1    13.13038  -13.67177  -15.49753
       H     8.68083  -15.36844   -7.53897
       O     9.50236  -15.92201   -7.63974
      H1     9.94878  -15.78146   -6.80742
       H     8.14985  -17.12164  -13.28663
       O     7.57933  -17.07336  -14.02343
      H1     6.79745  -16.71951  -13.60547
       H     3.62855  -14.20166  -11.12125
       O     4.07396  -15.02492  -10.83642
      H1     4.25747  -15.43377  -11.67474
       H    10.45397  -10.18716   -9.71029
       O    11.10355  -10.27953  -10.42595
      H1    10.93474  -11.15742  -10.84866
       H    17.40597  -14.00624  -10.45876
       O    18.22317  -13.80381   -9.95428
      H1    18.53211  -14.71054   -9.86434
       H    18.44395  -10.64746  -12.64877
       O    18.44208  -11.57601  -12.50625
      H1    18.59856  -11.77969  -11.58542
       H    12.84320   -8.24737  -16.70326
       O    13.61702   -8.80835  -16.44394
      H1    13.77240   -8.60571  -15.48546
       H    18.18809  -11.81307  -17.07282
       O    18.38569  -12.60534  -17.62529
      H1    17.61874  -13.15410  -17.30095
       H    11.68843  -16.10833  -11.85196
       O    12.05578  -15.39351  -12.41928
      H1    12.97867  -15.38136  -12.12613
       H    12.89883  -16.87759  -13.70998
       O    12.99547  -17.56112  -14.41374
      H1    13.09832  -16.95650  -15.15633
       H     9.30617   -8.26104  -14.72993
       O     8.61801   -7.85563  -15.25867
      H1     9.00033   -6.96443  -15.36085
       H     5.77839  -13.94250  -11.28517
       O     6.50447  -13.96437  -11.89675
      H1     7.28870  -13.73890  -11.32373
       H     7.36674  -19.18159  -18.17621
       O     7.71987  -18.67509  -17.45501
      H1     8.61767  -18.55743  -17.71949
       H     8.50690   -9.01692  -16.76604
       O     8.60877   -9.44259  -17.65498
      H1     7.81462   -9.91313  -17.84906
       H    15.60782  -10.07755  -18.44822
       O    16.15912   -9.62233  -19.10547
      H1    17.06589   -9.67344  -18.73808
       H    15.14037  -14.11064  -13.93337
       O    14.60854  -14.83472  -13.63211
      H1    15.12627  -15.57188  -14.12382
       H    10.90729  -17.53258   -9.79646
       O    10.28942  -16.77327   -9.99537
      H1    10.01331  -16.59184   -9.06734
       H     4.78798  -13.23789  -19.34733
       O     4.41786  -12.38954  -19.66502
      H1     4.90220  -11.65380  -19.23748
       H     2.75496  -17.44450  -18.15126
       O     3.11559  -16.76889  -18.75151
      H1     3.38910  -16.07956  -18.10885
       H    15.58284  -15.31695  -10.64477
       O    15.73423  -14.42135  -11.05860
      H1    15.34530  -14.51815  -11.92070
       H    10.60023  -11.87518  -15.68022
       O    10.19176  -12.28012  -14.90889
      H1     9.42468  -11.71211  -14.74975
       H     5.74631   -9.87429  -19.22514
       O     6.00053  -10.61606  -18.65920
      H1     5.61598  -10.54390  -17.75697
       H    15.84356  -11.01490  -15.20480
       O    16.71473  -11.18747  -14.72774
      H1    16.51414  -11.09110  -13.79713
       H    11.52466  -10.07945  -17.15091
       O    11.02141  -10.89623  -17.11264
      H1    10.10828  -10.59298  -17.11095
       H     8.95868  -14.29663  -15.38573
       O     8.17537  -14.73738  -15.75829
      H1     8.11341  -15.59469  -15.32184
       H    19.33084  -16.52163  -17.05796
       O    18.43441  -16.57385  -17.37088
      H1    18.22278  -17.43640  -17.25133
       H     6.49092  -13.70087  -15.79202
       O     5.69174  -13.15334  -15.83008
      H1     5.91326  -12.48447  -15.14352
       H     2.38738  -14.30394  -15.72995
       O     2.88874  -13.92409  -15.03150
      H1     3.58502  -13.52982  -15.51252
       H    11.88889  -13.53927   -8.57762
       O    10.91860  -13.47710   -8.67923
      H1    10.62466  -14.38832   -8.71624
       H    11.16164  -19.77910   -8.94382
       O    11.71862  -19.02833   -8.99680
      H1    12.11994  -19.08766   -9.88845
       H     6.70887  -11.30211  -13.72508
       O     7.14979  -12.15697  -14.02377
      H1     7.02571  -12.67117  -13.17135
       H     8.22896  -15.70996  -18.96758
       O     8.42046  -14.81923  -18.61358
      H1     8.46057  -14.96533  -17.65562
       H    10.77198  -17.13552  -17.83017
       O    10.06565  -17.65305  -18.24070
      H1     9.58468  -16.98238  -18.75799
       H    12.31411  -15.60081  -16.31161
       O    12.29630  -16.53241  -16.64769
      H1    11.84942  -17.03940  -15.91952
       H     5.12062  -17.31326  -18.10457
       O     5.96399  -16.95044  -18.51508
      H1     6.66288  -17.51650  -18.08829
       H    11.47467   -9.65272  -14.46595
       O    10.88296   -8.98341  -14.16299
      H1    11.37126   -8.52964  -13.46917
       H    13.86650  -12.70606   -8.20749
       O    13.52559  -13.58801   -8.26835
      H1    13.28216  -13.91073   -7.37320
       H    18.28836  -14.31149  -13.76319
       O    18.28112  -13.67172  -14.43706
      H1    18.09299  -12.92051  -13.88616
       H    15.97386   -9.88906  -10.95969
       O    15.27334  -10.20214  -11.52017
      H1    14.76855  -10.51687  -10.78711
       H    14.01420  -11.78778  -17.06141
       O    14.98380  -11.75512  -17.28683
      H1    15.01902  -12.55032  -17.87082
       H    10.98085  -13.12624  -10.62965
       O    10.58689  -12.96616  -11.54710
      H1    10.96474  -13.65379  -12.10313
       H    15.09322  -15.13748  -18.95680
       O    15.23103  -14.16404  -19.11676
      H1    15.94645  -14.04544  -19.76402
       H    16.83011  -13.47220  -15.50920
       O    15.95442  -13.80717  -15.83785
      H1    15.62230  -12.93670  -16.18694
       H    14.24277  -18.39490  -11.26939
       O    14.89232  -17.83469  -10.86332
      H1    15.07159  -18.32573  -10.03528
       H     4.99692  -13.83361  -17.39627
       O     4.85539  -14.50399  -18.13609
      H1     5.74183  -14.86776  -18.29327
       H     9.03866  -12.20580  -11.01534
       O     8.14428  -11.83494  -10.84700
      H1     8.18448  -10.93232  -11.25367

