180
frame 8 | Written by MDAnalysis XYZWriter (release 2.4.3)
       H    -0.50670   -8.92262  -14.52496
       O    -0.30514   -8.41177  -13.68315
      H1    -0.52071   -9.03654  -12.97738
       H     0.52938  -12.83451   -5.29490
       O     1.00550  -13.59091   -4.95627
      H1     0.92614  -13.45228   -3.99469
       H    -1.38138  -12.57613   -7.74260
       O    -1.83720  -12.89866   -8.52687
      H1    -2.30475  -12.09663   -8.76245
       H     1.14343  -17.44346  -10.43309
       O     1.76568  -17.92818   -9.91106
      H1     1.45743  -17.73787   -8.99315
       H     6.33362   -6.64261  -10.05238
       O     6.94892   -6.00880  -10.55412
      H1     6.44092   -5.73338  -11.32709
       H     7.22632   -5.87324   -3.98328
       O     7.63649   -6.08342   -4.80240
      H1     7.08219   -6.83124   -5.09429
       H     3.70483  -17.74197   -8.16073
       O     4.67629  -17.86248   -8.26229
      H1     4.84314  -18.37494   -9.01678
       H     4.94551  -15.79442  -12.74718
       O     4.08873  -16.13079  -12.50590
      H1     4.12826  -16.06828  -11.56382
       H    -1.96371   -9.83953   -8.74998
       O    -2.84608   -9.97644   -8.35596
      H1    -2.67363   -9.81149   -7.39254
       H    -2.21224  -11.24774   -3.23449
       O    -2.11143  -11.21300   -4.21303
      H1    -2.72587  -10.55904   -4.51297
       H     2.54089  -14.10855  -10.86820
       O     2.21946  -13.25405  -11.23546
      H1     1.95014  -13.55238  -12.07443
       H     8.16379  -11.92003   -5.76076
       O     7.29988  -12.36748   -5.73552
      H1     6.78691  -11.59609   -5.88151
       H    -0.11658  -15.78445  -11.45530
       O     0.00760  -16.68495  -11.77470
      H1     0.63132  -16.68033  -12.48965
       H     2.40721  -12.49583   -9.51618
       O     2.09126  -12.66160   -8.64846
      H1     2.55900  -13.51113   -8.54156
       H     4.74065   -4.38717   -7.13197
       O     5.27220   -3.85715   -6.54204
      H1     6.15069   -3.87990   -6.96270
       H     3.37361   -7.94819   -6.27686
       O     3.22411   -8.06660   -7.24141
      H1     3.38647   -8.97719   -7.36666
       H     6.91179  -15.56219   -2.74559
       O     7.22723  -14.95040   -3.39341
      H1     6.57631  -15.05665   -4.14917
       H     3.30647  -17.36522   -4.44603
       O     3.39095  -16.48689   -4.08792
      H1     3.29869  -15.89173   -4.83878
       H     3.03497   -5.51575   -5.19188
       O     2.27077   -5.69982   -5.78004
      H1     1.57334   -6.05382   -5.19665
       H     4.79811   -8.47959   -4.72415
       O     3.87460   -8.35611   -4.69085
      H1     3.51874   -8.47509   -3.78463
       H     3.24216   -6.26264  -10.25724
       O     2.48712   -6.76169  -10.72017
      H1     1.82859   -6.68999   -9.98314
       H     0.84576  -11.13943   -8.97538
       O     0.31040  -10.32798   -9.04265
      H1     0.86304   -9.84590   -9.64646
       H     0.53661  -15.39284   -8.53802
       O     0.92982  -15.95343   -7.88289
      H1     0.12655  -16.12515   -7.37984
       H     2.37770   -8.36826  -10.91578
       O     2.23582   -9.28795  -10.65821
      H1     2.45246   -9.64899  -11.53360
       H    -1.44561  -11.70481   -5.64142
       O    -0.85294  -11.75295   -6.42099
      H1    -0.12636  -11.15412   -6.22250
       H     6.89022  -15.22654   -9.63314
       O     6.50455  -15.56550  -10.44114
      H1     6.50788  -16.52164  -10.29167
       H     9.77164  -11.98456   -7.07041
       O     9.74242  -11.24048   -6.45291
      H1    10.10252  -10.54985   -6.99656
       H    -2.38319  -14.38721  -13.19585
       O    -1.62877  -13.80571  -13.00822
      H1    -1.47976  -13.90010  -12.07203
       H     0.27983   -9.04594   -1.80663
       O    -0.09544   -8.82615   -2.65396
      H1    -1.04898   -8.73101   -2.34663
       H     8.63152  -14.34446   -8.07701
       O     7.91111  -14.91949   -8.02160
      H1     7.36134  -14.54790   -7.32089
       H     1.09073   -9.56060   -5.53216
       O     1.32474  -10.44380   -5.16659
      H1     1.00878  -10.31215   -4.23433
       H     8.82807   -8.24334   -9.53797
       O     8.53278   -9.13323   -9.87370
      H1     8.12579   -9.00128  -10.70066
       H     1.50360   -8.27424   -6.74785
       O     0.56696   -8.31516   -7.03631
      H1     0.55402   -9.00714   -7.75338
       H     6.91243   -8.45220  -12.53200
       O     7.83083   -8.31625  -12.85745
      H1     7.92023   -9.01495  -13.53475
       H     3.19342  -11.67677   -5.39540
       O     3.92563  -12.19373   -5.70096
      H1     4.43687  -12.27734   -4.86418
       H     3.29662  -13.92016   -6.24027
       O     3.23073  -14.79774   -6.67687
      H1     2.28575  -14.94596   -6.82272
       H     9.39734   -8.72654   -4.68453
       O     8.82269   -9.52272   -4.52204
      H1     9.20482  -10.08861   -5.19735
       H    -0.28274   -6.98680   -5.39715
       O     0.07928   -6.58761   -4.61253
      H1     0.12704   -7.42150   -4.02723
       H     6.28878  -14.49688  -11.94308
       O     6.27046  -14.35706  -12.89829
      H1     5.89089  -13.48234  -12.95191
       H    -0.50535   -5.46133   -8.72954
       O     0.32753   -5.83147   -8.41952
      H1     0.14568   -6.67265   -8.00243
       H     6.90497  -11.17802  -12.06053
       O     7.52518  -11.58682  -12.68950
      H1     8.00497  -12.23189  -12.07150
       H     3.27961   -5.86046   -7.95123
       O     3.93918   -5.35786   -8.43738
      H1     3.47215   -4.94957   -9.18566
       H     3.73651   -7.80296   -1.38878
       O     3.04867   -8.33750   -1.82337
      H1     2.68901   -8.77746   -1.06029
       H     2.03728   -9.88565  -14.19792
       O     2.01655  -10.19857  -13.25168
      H1     1.05932  -10.06283  -13.08161
       H     0.55797  -13.96450  -10.46109
       O    -0.31756  -14.36446  -10.38068
      H1    -0.77628  -13.72332   -9.81571
       H     5.04737   -7.52031   -8.34617
       O     5.68793   -7.87403   -9.03475
      H1     5.17035   -8.55009   -9.40587
       H     4.43288   -9.93882   -2.29854
       O     5.36083  -10.11820   -2.09511
      H1     5.58462  -10.84163   -2.68490
       H     6.24332  -13.01128   -2.90583
       O     5.88599  -12.33948   -3.50642
      H1     6.42914  -12.49103   -4.27047
       H     3.48295  -10.19762   -9.28257
       O     3.90176  -10.46300   -8.48160
      H1     3.21949  -10.99148   -8.03467
       H     5.34399  -16.36959   -5.71796
       O     5.62972  -15.50302   -5.87160
      H1     4.83506  -15.06590   -6.21545
       H     4.23520  -15.46973   -9.36757
       O     3.35136  -15.28458   -9.70354
      H1     2.92221  -16.12720   -9.58179
       H    -1.63378  -10.43888  -11.49872
       O    -0.68401  -10.39071  -11.78425
      H1    -0.26184  -10.45718  -10.90950
       H     3.85548   -7.42483  -13.51683
       O     4.16928   -8.24347  -13.81007
      H1     3.47437   -8.86152  -13.57541
       H     6.90378   -9.71961   -8.56969
       O     6.61519  -10.46202   -7.99555
      H1     5.63120  -10.53277   -8.16676
       H     6.15878   -8.78577   -6.54027
       O     6.30659   -8.39630   -5.63909
      H1     7.20492   -8.69661   -5.62381
       H     0.51112  -15.71364   -4.01074
       O     0.87034  -15.90654   -3.12266
      H1     1.79650  -16.06833   -3.44509
       H     9.09169  -13.27368  -10.40843
       O     8.31003  -13.36012  -11.01072
      H1     8.11330  -14.30360  -10.89889
       H     3.42194  -12.93524  -12.70348
       O     3.73700  -12.34573  -13.41096
      H1     3.11912  -11.55900  -13.34634
       H     6.81875  -12.96176   -9.87192
       O     5.99165  -12.68281   -9.45309
      H1     6.23185  -12.42629   -8.54619
       H     4.65238  -11.32887  -12.25608
       O     5.09682  -10.75787  -11.58181
      H1     5.13312  -11.38360  -10.85534

