180
frame 4 | Written by MDAnalysis XYZWriter (release 2.4.3)
       H     6.29769   -4.70428   -4.04344
       O     5.88913   -5.55141   -4.25084
      H1     5.06510   -5.30132   -4.76662
       H     8.12024    1.58103   -2.30570
       O     7.68576    1.17931   -3.05402
      H1     8.29352    0.49200   -3.30115
       H     5.37426    0.41657   -4.28150
       O     5.49257    0.41707   -5.25167
      H1     5.86177   -0.47871   -5.42474
       H    12.47402   -8.74903   -7.36645
       O    13.40764   -8.97937   -7.62433
      H1    13.85186   -8.57095   -6.92065
       H    16.11884   -5.69846   -4.24936
       O    16.58669   -4.97083   -3.92067
      H1    17.23047   -5.32150   -3.27968
       H    14.13344    2.46462   -0.55508
       O    14.43175    1.59830   -0.19953
      H1    15.40685    1.70320   -0.37805
       H    13.23539   -4.35309   -5.26263
       O    13.08678   -5.24582   -5.57806
      H1    12.33562   -5.54378   -5.02694
       H    13.44244    2.05029   -7.08505
       O    12.98025    1.20975   -6.99660
      H1    13.11180    0.80174   -7.85291
       H     9.12821   -5.11583   -4.80725
       O     9.11976   -5.80233   -5.48156
      H1     8.26014   -6.30374   -5.29919
       H    13.15353   -1.60079  -11.12802
       O    13.72584   -0.90741  -11.42684
      H1    14.38757   -0.89481  -10.68873
       H    13.01352   -5.73386   -1.50495
       O    13.14581   -4.78683   -1.65984
      H1    14.08152   -4.64539   -1.61262
       H     9.92561   -2.34990  -11.46850
       O     9.81466   -2.27220  -10.48042
      H1     8.90926   -2.56249  -10.26515
       H    13.73448   -8.45594   -3.48310
       O    14.32122   -8.71705   -2.75246
      H1    13.93763   -9.56119   -2.49845
       H    13.71147   -4.76470  -11.09417
       O    13.29397   -3.91183  -11.14581
      H1    12.42467   -4.13276  -10.83656
       H    15.87177   -0.13875   -1.81450
       O    15.39902   -0.74107   -2.36094
      H1    15.18179   -0.26922   -3.16152
       H    15.22298   -6.65947   -6.84560
       O    14.96187   -7.18655   -6.07937
      H1    14.18861   -6.60655   -5.88450
       H    11.61121   -7.33805   -0.17659
       O    12.00018   -7.35791   -1.03410
      H1    12.77868   -7.84265   -0.82347
       H     8.75410    4.15260   -4.39535
       O     9.63888    4.20255   -4.77433
      H1     9.63514    3.51275   -5.47603
       H    11.92668   -4.46891   -0.28773
       O    11.41131   -4.14129    0.43981
      H1    11.04042   -3.28948    0.11883
       H    14.48100   -2.54344    1.94869
       O    15.00937   -1.72161    1.78873
      H1    14.60463   -1.47695    0.93209
       H    19.08462   -3.79547   -6.14315
       O    18.30060   -4.29224   -6.45142
      H1    17.85122   -4.45339   -5.64011
       H    14.81184    4.62070   -4.94406
       O    14.75136    3.83446   -4.40696
      H1    14.42307    4.16571   -3.54510
       H    18.59736   -4.01654   -1.10054
       O    18.63543   -3.27743   -0.47605
      H1    18.29886   -2.59175   -1.05663
       H     8.34394   -4.87100   -6.75284
       O     8.12231   -4.38145   -7.55748
      H1     8.87708   -3.76569   -7.57695
       H     5.42929   -2.81840   -6.45714
       O     6.28795   -2.52531   -6.72261
      H1     6.65722   -3.25969   -7.22764
       H    13.39323   -2.27196   -1.16514
       O    13.72799   -1.56798   -0.58570
      H1    14.26956   -1.08795   -1.21685
       H     8.43715   -7.10152   -1.02172
       O     8.29959   -6.14230   -0.85082
      H1     7.63471   -6.17612   -0.19417
       H    12.35676    0.57312   -0.73150
       O    11.62076    0.69070   -0.06756
      H1    11.87735    1.57512    0.30545
       H    17.44841   -0.12215   -6.56270
       O    17.42786   -1.04557   -6.30146
      H1    16.77272   -1.50069   -6.81875
       H    10.39717   -0.47017  -10.28883
       O    10.50358    0.31919   -9.76347
      H1     9.84235    0.94734  -10.10385
       H    16.16153    0.20083   -9.19654
       O    15.82048   -0.61594   -9.55998
      H1    15.74297   -1.18393   -8.76175
       H    10.16552    2.76726   -1.73815
       O    10.80041    2.68253   -2.49439
      H1    10.35094    3.23611   -3.15764
       H    15.11828   -5.89764   -9.30749
       O    15.76463   -5.73897   -8.56127
      H1    16.16352   -4.92866   -9.01656
       H    17.95004   -4.03618   -8.34630
       O    17.72035   -3.95956   -9.31415
      H1    18.56900   -4.11897   -9.81135
       H     9.97985    1.37152   -0.41504
       O     9.09594    1.53349   -0.78818
      H1     8.91129    2.45570   -0.39851
       H    16.02543    2.50362   -3.13951
       O    16.64870    1.84085   -2.76279
      H1    17.50466    1.93860   -3.29354
       H    10.31409   -1.20730    0.15411
       O    10.32709   -1.67943    1.03639
      H1    10.87690   -1.06408    1.55189
       H    11.43916    0.98005   -6.25936
       O    10.51107    1.18184   -5.93429
      H1     9.97481    0.87312   -6.68698
       H     8.88470   -4.96335   -1.95465
       O     8.99069   -4.31240   -2.66786
      H1     9.77494   -3.74177   -2.47041
       H    15.06022   -3.52186   -7.98007
       O    15.65125   -2.92758   -7.39623
      H1    16.38382   -3.36958   -7.05432
       H    10.43406   -6.56362   -9.07663
       O     9.64181   -6.79854   -8.58209
      H1     9.24413   -5.88862   -8.51042
       H    10.33168   -4.03671  -10.10279
       O    10.89851   -4.83852  -10.21391
      H1    10.62645   -5.19828  -11.07830
       H    10.54876   -6.29286   -4.25857
       O    11.35634   -6.79375   -4.01413
      H1    11.39894   -6.67152   -3.06525
       H    10.76704   -1.59121   -2.58772
       O    10.90841   -2.38376   -2.08034
      H1    11.48370   -2.84654   -2.68397
       H     7.17170   -2.59503   -4.88363
       O     6.97608   -2.56896   -3.88062
      H1     7.78030   -2.91051   -3.55330
       H    12.57819   -2.06222   -4.02870
       O    12.26331   -2.86768   -4.41867
      H1    11.57082   -2.59212   -5.04901
       H    12.78016   -4.57970   -7.35192
       O    12.82624   -3.84496   -7.99983
      H1    12.80172   -4.23974   -8.87116
       H    11.36723   -2.94700   -7.29316
       O    10.52027   -2.80369   -6.78820
      H1    10.20355   -1.87788   -6.99704
       H    10.28143   -7.69920   -7.10606
       O    10.76322   -8.41045   -6.65950
      H1    10.94480   -8.01703   -5.81073
       H    16.15132   -4.00394   -1.78650
       O    15.66800   -4.18974   -0.99408
      H1    15.89739   -3.38032   -0.53426
       H     6.65486   -3.84842  -10.51945
       O     7.10695   -3.22815   -9.86148
      H1     7.18105   -3.88715   -9.17011
       H    13.39496   -0.10454   -5.17719
       O    13.19492   -0.26664   -4.22337
      H1    12.41940    0.29886   -4.11729
       H    15.02071   -6.69198    0.86488
       O    15.11414   -6.01642    1.50456
      H1    15.59369   -5.37518    0.91293
       H    17.10196   -1.16834   -2.60504
       O    17.99181   -1.41811   -2.43171
      H1    18.31287   -1.28224   -3.30349
       H    10.38972   -5.69366    1.23400
       O    10.52487   -6.66594    1.25060
      H1     9.82370   -7.02981    0.72282
       H    10.37928    1.00988   -3.02288
       O    10.29787    0.22626   -3.54235
      H1    10.26408    0.69100   -4.43757
       H     9.10560   -0.27193   -8.55681
       O     8.80761   -0.56422   -7.68617
      H1     7.87009   -0.51024   -7.73641
       H     7.89461   -8.21036   -7.10549
       O     7.70693   -8.19595   -6.15578
      H1     8.47727   -8.58385   -5.65680
       H    12.89566   -0.07415    1.57989
       O    12.83924   -0.03156    2.51130
      H1    13.63714   -0.53008    2.64732
       H    14.00436   -4.66466    1.97155
       O    13.48980   -3.93177    2.36351
      H1    12.78005   -3.88364    1.75446

