180
frame 4 | Written by MDAnalysis XYZWriter (release 2.4.3)
       H    14.57489   -9.70553  -13.56330
       O    14.67273   -9.57315  -14.48985
      H1    13.78613   -9.52159  -14.79120
       H    12.47402   -8.74903   -7.36645
       O    13.40764   -8.97937   -7.62433
      H1    13.85186   -8.57095   -6.92065
       H    13.23539   -4.35309   -5.26263
       O    13.08678   -5.24582   -5.57806
      H1    12.33562   -5.54378   -5.02694
       H    13.44244    2.05029   -7.08505
       O    12.98025    1.20975   -6.99660
      H1    13.11180    0.80174   -7.85291
       H    17.79963   -5.67290  -14.12738
       O    17.99500   -5.49644  -13.17903
      H1    17.48769   -4.63327  -13.14352
       H     6.50701   -6.12792  -11.44600
       O     7.18476   -5.44442  -11.63742
      H1     6.90254   -5.10952  -12.53752
       H     9.95860   -2.91318  -13.79768
       O     9.23446   -2.69232  -13.26770
      H1     8.95673   -1.89990  -13.73144
       H    18.18179    0.16604  -11.59744
       O    18.13801    1.08890  -11.80941
      H1    18.98800    1.39775  -11.43928
       H    11.47318   -2.46748  -15.38644
       O    11.34206   -3.36135  -15.01922
      H1    11.56902   -3.98793  -15.73451
       H    13.15353   -1.60079  -11.12802
       O    13.72584   -0.90741  -11.42684
      H1    14.38757   -0.89481  -10.68873
       H     9.92561   -2.34990  -11.46850
       O     9.81466   -2.27220  -10.48042
      H1     8.90926   -2.56249  -10.26515
       H    13.71147   -4.76470  -11.09417
       O    13.29397   -3.91183  -11.14581
      H1    12.42467   -4.13276  -10.83656
       H    17.32739   -1.17692  -10.15492
       O    18.15157   -1.46860  -10.49969
      H1    18.15331   -2.48276  -10.37719
       H    15.22298   -6.65947   -6.84560
       O    14.96187   -7.18655   -6.07937
      H1    14.18861   -6.60655   -5.88450
       H     8.19712   -0.00313  -14.31280
       O     8.89597   -0.50586  -14.69769
      H1     9.64566    0.12176  -14.68367
       H    10.69714   -9.83179  -10.34243
       O    11.67040  -10.02058  -10.61610
      H1    11.48624  -10.43294  -11.50094
       H    19.08462   -3.79547   -6.14315
       O    18.30060   -4.29224   -6.45142
      H1    17.85122   -4.45339   -5.64011
       H    13.51212   -3.32422  -12.80780
       O    13.65394   -3.02189  -13.72504
      H1    12.79845   -3.34212  -14.13352
       H     8.34394   -4.87100   -6.75284
       O     8.12231   -4.38145   -7.55748
      H1     8.87708   -3.76569   -7.57695
       H    11.83507   -7.45856  -16.78213
       O    12.44832   -7.57388  -16.07602
      H1    12.78127   -8.47165  -16.18652
       H    12.90157   -1.51092  -16.63702
       O    12.62564   -1.61725  -17.59252
      H1    11.68756   -1.50324  -17.62491
       H    11.53246    2.09533  -10.33642
       O    11.73034    2.77593  -10.98164
      H1    12.36961    3.37257  -10.57103
       H    17.44841   -0.12215   -6.56270
       O    17.42786   -1.04557   -6.30146
      H1    16.77272   -1.50069   -6.81875
       H    10.39717   -0.47017  -10.28883
       O    10.50358    0.31919   -9.76347
      H1     9.84235    0.94734  -10.10385
       H    16.16153    0.20083   -9.19654
       O    15.82048   -0.61594   -9.55998
      H1    15.74297   -1.18393   -8.76175
       H    10.30218   -7.23565  -14.92204
       O     9.35509   -7.18566  -15.19504
      H1     9.05430   -6.60895  -14.52127
       H    15.01689   -2.99076  -16.21835
       O    15.89544   -3.12583  -16.71558
      H1    16.53197   -2.71733  -16.10041
       H    17.37539   -1.42200  -14.73221
       O    17.78724   -2.29634  -15.02611
      H1    17.37992   -2.86101  -14.35955
       H    15.11828   -5.89764   -9.30749
       O    15.76463   -5.73897   -8.56127
      H1    16.16352   -4.92866   -9.01656
       H    17.95004   -4.03618   -8.34630
       O    17.72035   -3.95956   -9.31415
      H1    18.56900   -4.11897   -9.81135
       H    18.68994   -7.77541   -9.12007
       O    18.54183   -8.06289   -9.98863
      H1    18.96820   -7.30789  -10.49941
       H    16.26119   -2.29136  -12.90573
       O    16.26523   -3.26889  -13.10516
      H1    15.35107   -3.35184  -13.46854
       H    15.06022   -3.52186   -7.98007
       O    15.65125   -2.92758   -7.39623
      H1    16.38382   -3.36958   -7.05432
       H    12.28957   -3.65332  -17.77588
       O    11.89220   -4.50014  -17.59858
      H1    12.22070   -5.14798  -18.24689
       H    12.96310    1.88098  -11.94695
       O    13.72296    1.59435  -12.47722
      H1    13.79165    0.60391  -12.30577
       H     9.43981   -4.51378  -15.68547
       O     8.77841   -4.31369  -16.31825
      H1     8.02870   -4.15198  -15.73408
       H    10.43406   -6.56362   -9.07663
       O     9.64181   -6.79854   -8.58209
      H1     9.24413   -5.88862   -8.51042
       H    10.33168   -4.03671  -10.10279
       O    10.89851   -4.83852  -10.21391
      H1    10.62645   -5.19828  -11.07830
       H     9.24372   -8.25704   -9.54666
       O     9.09083   -9.12432  -10.01113
      H1     8.88918   -8.84063  -10.88678
       H    15.16987   -6.16633  -13.93861
       O    15.47360   -6.56890  -13.06481
      H1    16.37554   -6.28337  -12.87663
       H    12.57819   -2.06222   -4.02870
       O    12.26331   -2.86768   -4.41867
      H1    11.57082   -2.59212   -5.04901
       H    13.76304   -6.55035  -15.68118
       O    14.33050   -5.78203  -15.50181
      H1    14.99398   -5.94057  -16.21318
       H     8.93305   -6.19707  -12.20154
       O     9.82329   -5.84480  -12.49492
      H1    10.33247   -6.67788  -12.54225
       H    16.44281  -10.08459   -9.36183
       O    16.04373   -9.27585   -9.74117
      H1    16.81471   -8.61693   -9.75099
       H    12.78016   -4.57970   -7.35192
       O    12.82624   -3.84496   -7.99983
      H1    12.80172   -4.23974   -8.87116
       H    11.36723   -2.94700   -7.29316
       O    10.52027   -2.80369   -6.78820
      H1    10.20355   -1.87788   -6.99704
       H    10.28143   -7.69920   -7.10606
       O    10.76322   -8.41045   -6.65950
      H1    10.94480   -8.01703   -5.81073
       H    16.51434   -8.53917  -14.07340
       O    17.28727   -8.75480  -14.65451
      H1    18.07491   -8.65191  -14.10282
       H    11.64150    1.23090  -14.22039
       O    10.82938    1.36793  -14.68075
      H1    10.66460    2.31089  -14.61312
       H     6.65486   -3.84842  -10.51945
       O     7.10695   -3.22815   -9.86148
      H1     7.18105   -3.88715   -9.17011
       H    13.41400   -1.47356  -14.52630
       O    12.85617   -0.81892  -15.07542
      H1    13.60049   -0.32859  -15.44751
       H    15.55500   -0.55394  -16.61833
       O    14.86009    0.09288  -16.71552
      H1    14.62524    0.21523  -17.61047
       H     6.33387   -3.64059  -14.42873
       O     7.02119   -4.29665  -14.10479
      H1     7.81347   -3.71633  -13.83979
       H    19.27916   -1.29014   -8.97626
       O    19.61570   -1.14877   -8.13631
      H1    18.89578   -1.13542   -7.46353
       H    14.93539   -9.56154  -10.94086
       O    14.25098   -9.75860  -11.62377
      H1    13.55393  -10.27119  -11.22980
       H     9.10560   -0.27193   -8.55681
       O     8.80761   -0.56422   -7.68617
      H1     7.87009   -0.51024   -7.73641
       H    14.68836   -6.94876  -11.27652
       O    14.14550   -6.66473  -10.53283
      H1    14.03955   -7.54611  -10.13519
       H    12.48704   -7.39733  -13.12575
       O    11.64671   -7.86502  -12.85013
      H1    11.97015   -8.33170  -12.05509
       H    16.60474    0.63932  -13.53429
       O    16.63825    0.06576  -14.32195
      H1    17.20901    0.53628  -14.96822
       H    15.69998    3.01807  -14.35897
       O    15.71009    2.99576  -13.38987
      H1    14.92351    2.35788  -13.31007

