180
frame 10 | Written by MDAnalysis XYZWriter (release 2.4.3)
       H    -2.22691   15.77680   -1.76305
       O    -2.39998   16.73649   -1.81051
      H1    -2.26583   17.05823   -0.89912
       H    -5.22023   18.55860   -8.08349
       O    -4.25055   18.42250   -7.94232
      H1    -4.26468   18.73948   -7.06544
       H    -4.22309   16.51299   -4.94955
       O    -3.30063   16.19908   -4.84137
      H1    -3.35044   15.75091   -4.01694
       H    -5.67769   14.96799    4.58115
       O    -5.79613   15.78253    5.06478
      H1    -6.17747   16.44767    4.44362
       H    -5.48976   11.80198   -7.73543
       O    -4.67925   12.29311   -7.51717
      H1    -5.08495   12.88123   -6.85043
       H   -13.53616   20.10958   -4.19333
       O   -13.38990   19.13949   -4.19984
      H1   -14.13514   18.86475   -4.70983
       H    -6.20686   17.49611   -5.59872
       O    -5.95797   16.66849   -5.08449
      H1    -5.98184   15.90367   -5.59933
       H    -0.77125   17.59548   -0.18870
       O    -1.21169   17.17638    0.59025
      H1    -1.70622   18.00186    1.02447
       H   -10.19628   12.62800    2.36599
       O   -10.69231   13.27668    2.91208
      H1    -9.97737   13.82524    3.19689
       H    -6.63975   18.01301   -1.78702
       O    -6.15967   18.37903   -1.02465
      H1    -6.66304   19.19427   -0.84252
       H    -9.56287   14.95010    0.71513
       O    -8.72785   15.47321    0.74676
      H1    -8.09331   14.90335    0.22065
       H    -3.93375   14.26365    1.95204
       O    -4.88311   14.48163    1.66405
      H1    -5.26965   14.05143    2.41105
       H    -3.63220   18.33534    1.58854
       O    -2.88759   18.94030    1.76432
      H1    -2.97965   19.60424    1.07126
       H   -14.42540   15.06054   -5.09519
       O   -14.62210   15.97751   -5.16180
      H1   -15.45055   15.94080   -4.76632
       H   -12.99433   19.37068    2.65164
       O   -12.39238   18.77464    2.16340
      H1   -12.00283   19.39802    1.50104
       H    -8.07011   16.48734   -2.49991
       O    -7.65350   17.29919   -2.86542
      H1    -7.09715   16.95949   -3.60113
       H    -1.90860   17.56830   -4.69524
       O    -1.25672   18.24275   -4.47425
      H1    -0.49846   17.98436   -5.05260
       H   -11.83332   11.68893   -1.68285
       O   -11.63682   11.54527   -0.74643
      H1   -12.46611   11.15220   -0.50807
       H    -8.05176   10.97367    1.21747
       O    -7.10824   11.18039    0.93796
      H1    -6.60622   10.99662    1.78344
       H   -10.51480   10.49829    1.69558
       O    -9.80312   10.97736    1.19108
      H1   -10.37785   11.47341    0.59666
       H    -6.20897    9.76815   -1.93899
       O    -7.09363    9.75371   -1.54363
      H1    -6.93118   10.17286   -0.67150
       H    -4.14442   13.09795   -2.75755
       O    -3.45926   13.17823   -3.36829
      H1    -2.75496   13.36652   -2.77107
       H    -7.23110   19.75246   -8.30120
       O    -6.78199   19.01979   -8.82444
      H1    -7.18914   19.08049   -9.73877
       H    -3.36477   11.93723   -0.00719
       O    -3.90662   12.54480   -0.49624
      H1    -4.16165   13.17175    0.19966
       H    -0.69688   13.42149   -1.90778
       O    -1.12923   14.16120   -2.29279
      H1    -0.83620   14.18103   -3.18974
       H   -13.40290   17.96080    0.79487
       O   -13.95498   17.51523    0.10721
      H1   -14.40693   18.32080   -0.27199
       H    -8.95277   14.70270   -7.07312
       O    -8.92796   13.71617   -6.73320
      H1    -9.73887   13.68697   -6.14968
       H    -3.61120   16.94318   -8.84949
       O    -3.11645   16.31936   -9.44883
      H1    -3.74280   15.53589   -9.43322
       H    -5.20110   19.77038    4.95242
       O    -4.63646   19.41817    4.29914
      H1    -5.30611   19.21717    3.60917
       H    -2.37045   15.52186   -7.89090
       O    -1.80540   15.42569   -7.05170
      H1    -2.54239   15.73560   -6.43662
       H    -9.08741   17.01498   -7.76557
       O    -8.88260   16.14395   -8.15552
      H1    -9.27549   16.20077   -9.10663
       H    -7.12129   12.02667   -3.43295
       O    -6.27753   12.50739   -3.40243
      H1    -5.65003   11.76890   -3.48071
       H   -13.05238   15.99663   -4.32502
       O   -12.43525   15.44893   -3.79126
      H1   -11.98395   16.19219   -3.30730
       H    -9.02431   18.39331   -0.87917
       O    -9.63556   18.27789   -0.05808
      H1    -9.41949   17.42913    0.27805
       H    -5.69577   14.43775   -9.51058
       O    -4.70351   14.28207   -9.48571
      H1    -4.69629   13.52150   -8.83947
       H    -6.86281   13.53797   -6.11892
       O    -6.07327   13.95872   -5.76008
      H1    -6.15700   13.67354   -4.84522
       H    -7.44529   16.17675   -9.55313
       O    -7.13873   15.41078  -10.05171
      H1    -6.72757   15.79175  -10.82014
       H   -12.37391   17.85513   -6.98719
       O   -11.74268   18.44036   -6.50427
      H1   -12.31413   18.63176   -5.75066
       H    -8.29228   14.42904   -1.56356
       O    -9.00379   14.58510   -2.21351
      H1    -9.19349   13.70696   -2.57539
       H    -8.86694   15.65639    4.30040
       O    -8.72159   14.98681    3.63102
      H1    -8.78156   15.50897    2.79443
       H    -4.63065   19.11378   -1.93044
       O    -3.73762   19.08082   -2.30967
      H1    -3.48570   18.06953   -2.35317
       H    -8.64443   12.86733   -9.96538
       O    -8.89876   12.34173   -9.18655
      H1    -9.21172   13.06090   -8.58497
       H    -9.14516   12.21648   -4.98143
       O    -9.06573   12.28773   -4.03902
      H1    -9.56762   11.55125   -3.64285
       H   -13.76299   15.56554   -0.84959
       O   -13.91420   14.80807   -1.45309
      H1   -13.38513   15.17392   -2.21910
       H   -11.50533   13.72071   -0.68643
       O   -10.81609   14.27695   -0.38280
      H1   -10.29139   14.32132   -1.19627
       H    -2.92577   12.47856   -4.79720
       O    -2.50673   11.85805   -5.46104
      H1    -3.19860   11.65649   -6.11397
       H   -12.39208   13.49780   -6.88805
       O   -12.94666   13.72540   -7.66282
      H1   -12.29455   13.33473   -8.27668
       H    -2.82441   18.96360   -5.38701
       O    -3.44037   19.62042   -5.74978
      H1    -4.12121   19.68929   -4.97309
       H    -0.36504   18.43732   -2.47694
       O    -0.02871   18.81190   -1.64633
      H1     0.49091   19.56442   -1.83545
       H    -5.22374   17.51149    0.38921
       O    -4.96753   17.36441    1.29595
      H1    -5.17714   16.38739    1.40092
       H    -7.66523   18.92242   -5.44223
       O    -6.84795   19.27301   -5.84262
      H1    -6.76991   19.97338   -5.13930
       H   -12.70486   15.51944   -7.81122
       O   -12.96546   16.45668   -7.83896
      H1   -13.55881   16.33447   -7.04350
       H   -10.80135   18.49937    2.91926
       O    -9.94144   18.29569    3.42903
      H1   -10.27676   17.60630    4.05349
       H    -6.53982   13.18786    0.02473
       O    -6.99120   13.66559   -0.72192
      H1    -6.42471   13.37564   -1.52701
       H   -11.96069   15.58700    1.13165
       O   -12.21415   15.38486    2.04471
      H1   -11.62817   14.61385    2.13909
       H   -10.08602   10.58494   -1.43870
       O    -9.73719   10.28630   -2.30500
      H1    -8.79561   10.27763   -1.97754
       H   -12.10751   18.41452   -2.84712
       O   -11.64680   17.66049   -2.46746
      H1   -11.03333   18.15457   -1.85667
       H   -11.90420   14.14344   -4.65577
       O   -11.52554   13.57211   -5.34828
      H1   -11.77993   12.69636   -5.08063
       H    -6.84781   17.45433    2.62152
       O    -7.21843   17.97412    3.31245
      H1    -8.16939   17.95065    3.20677
       H    -9.66766   17.37166   -4.53702
       O    -9.54089   18.04199   -5.22226
      H1   -10.20942   17.88758   -5.87315

