180
frame 1 | Written by MDAnalysis XYZWriter (release 2.4.3)
       H     3.02573  -11.36672   17.16679
       O     3.25276  -10.40344   17.42505
      H1     2.57027  -10.23115   18.06114
       H    -5.49474   -9.94149   19.04875
       O    -6.07305  -10.64853   18.71801
      H1    -5.52640  -11.47313   18.82918
       H    -0.92197  -12.77017   17.64890
       O    -0.09340  -12.40166   17.29350
      H1    -0.27601  -11.51028   16.90619
       H     4.00923  -11.14532   10.69982
       O     3.23629  -10.68937   11.11292
      H1     2.91646  -11.19543   11.84868
       H    -1.11106   -8.58534   15.63685
       O    -1.48377   -7.64774   15.81661
      H1    -0.77739   -7.09760   15.36340
       H     3.19313  -16.90858   15.95302
       O     2.96191  -17.83452   15.89343
      H1     2.58374  -17.86733   14.99830
       H     6.70186   -8.90469   18.47850
       O     5.74820   -8.79629   18.45633
      H1     5.44793   -9.42390   17.80536
       H     1.54424  -17.56388   12.64098
       O     1.72055  -18.10658   13.45095
      H1     0.93355  -18.68704   13.36270
       H    -5.91977  -14.54901   12.65408
       O    -5.50987  -15.04550   13.40839
      H1    -5.34791  -14.30377   14.02334
       H    -3.07271   -8.75039   15.92609
       O    -3.71003   -9.47401   15.74641
      H1    -4.49031   -9.07963   16.18498
       H    -4.65851  -13.03637   17.29776
       O    -4.50356  -12.87295   16.33036
      H1    -4.90860  -11.94903   16.34026
       H     1.13062   -6.47126   17.39149
       O     2.02060   -6.84033   17.27074
      H1     1.90598   -7.52154   16.52294
       H     5.64559  -11.54938   11.78685
       O     6.01758  -11.71875   10.91442
      H1     5.54071  -12.44978   10.59050
       H     3.40333  -18.77786   12.95909
       O     4.33609  -19.09043   12.95394
      H1     4.23151  -19.91848   12.45026
       H     5.88047   -6.38343   16.88618
       O     6.41580   -6.75944   16.13724
      H1     6.15239   -7.72370   16.13693
       H    -3.98768  -11.52627   12.23399
       O    -3.57483  -11.81452   11.44178
      H1    -3.24626  -10.97335   11.12078
       H    -5.48367  -14.02944   18.91146
       O    -5.11550  -13.12076   19.13640
      H1    -4.75151  -13.34261   20.00997
       H     5.73812   -7.60227   11.46358
       O     6.05326   -7.72677   12.38428
      H1     5.36251   -8.33454   12.75563
       H     5.52977  -18.66487   14.63105
       O     6.31075  -19.01116   15.10469
      H1     5.81260  -19.51346   15.75275
       H     8.03498  -11.52961   14.29035
       O     8.10661  -12.42316   14.00161
      H1     7.54327  -12.86289   14.67092
       H     0.76131  -16.95089   15.93209
       O     0.18006  -16.56297   16.59199
      H1    -0.35593  -17.33522   16.86333
       H    -1.20950  -13.77662   10.34265
       O    -1.44798  -12.87102   10.00943
      H1    -2.19522  -12.67714   10.60362
       H     2.28804  -13.16855   18.01382
       O     2.35297  -12.89489   17.07300
      H1     1.44095  -12.75434   16.75574
       H    -2.10765  -15.87234   10.33855
       O    -1.17133  -15.70346   10.50532
      H1    -0.84292  -16.61716   10.66266
       H    -1.64530  -14.03464   19.20053
       O    -2.20509  -13.72124   18.45741
      H1    -2.59941  -14.58506   18.24420
       H     5.23521  -16.73899   18.91704
       O     5.26922  -16.95904   17.94907
      H1     4.89744  -16.21604   17.55387
       H     1.64840  -11.52818   13.23779
       O     2.44632  -11.67169   13.75433
      H1     2.27224  -12.48757   14.20909
       H     0.53742   -6.99498   12.64478
       O     1.10668   -6.99474   11.83978
      H1     0.87621   -7.86562   11.49190
       H    -3.16275  -17.21011   17.51097
       O    -3.28215  -16.19235   17.44356
      H1    -4.26202  -16.25628   17.52904
       H     2.51126   -9.31948   16.16874
       O     1.85654   -8.96747   15.46432
      H1     2.41479   -9.09102   14.67925
       H     4.73042   -9.11712   14.96544
       O     5.56485   -9.48170   15.19426
      H1     5.33425   -9.95521   15.99402
       H     3.51873   -7.76656   13.52723
       O     3.64228   -8.73799   13.35875
      H1     3.18240   -8.89837   12.52375
       H     1.35330   -9.43523   19.22635
       O     0.92599   -9.20545   18.42789
      H1     1.55468   -8.50382   18.16193
       H     2.02294  -15.60257   19.37337
       O     1.70932  -14.99763   18.69129
      H1     1.28288  -15.55919   18.06410
       H     0.84490  -14.81983   14.73916
       O     0.95660  -14.29775   13.95228
      H1     0.04370  -14.33375   13.54578
       H     5.13390  -14.94113   10.65129
       O     4.44427  -14.43168   10.25239
      H1     3.72258  -14.96489   10.64704
       H     7.54454  -15.73789   11.04730
       O     6.58317  -15.82760   11.27779
      H1     6.66302  -15.91148   12.25831
       H    -0.37803   -4.81646   17.80806
       O    -0.07689   -5.58998   18.30640
      H1    -0.98284   -5.99726   18.45874
       H    -0.30844  -10.04308   11.95423
       O     0.14024  -10.80172   12.39320
      H1    -0.40353  -11.54631   12.43487
       H    -2.47489  -10.39333   19.20034
       O    -2.76578  -11.17864   19.66077
      H1    -2.77053  -11.91712   19.02474
       H    -0.84008  -19.19521   17.36109
       O    -1.70913  -18.80455   17.12845
      H1    -2.21853  -19.06226   17.95152
       H    -3.51297  -15.60234   14.82131
       O    -2.59764  -16.02659   14.81265
      H1    -2.35496  -16.02419   15.78571
       H     1.41027   -5.89762   14.44060
       O     0.45400   -6.09578   14.41267
      H1     0.20735   -5.16375   14.41960
       H    -3.03619  -12.17784   14.99872
       O    -2.45175  -12.08854   14.21534
      H1    -2.24583  -13.02330   14.00571
       H     2.89938   -5.83447   16.05417
       O     3.13030   -5.29324   15.25003
      H1     3.61100   -4.58961   15.70406
       H     5.33533  -11.72417   17.94536
       O     6.05603  -11.69263   17.28543
      H1     6.80047  -12.09739   17.75079
       H    -3.55949   -8.60215   12.49699
       O    -4.07094   -9.29550   12.99722
      H1    -3.76411   -9.03273   13.93408
       H    -1.26926  -11.00472   15.00395
       O    -0.74038  -10.36646   15.51201
      H1     0.09110  -10.31756   14.94841
       H    -3.33790   -5.70745   19.86712
       O    -3.28651   -6.22257   19.03597
      H1    -2.67468   -6.96354   19.36551
       H     4.56305  -14.82950   15.84572
       O     3.77765  -15.21455   16.27738
      H1     3.34475  -14.42529   16.67813
       H    -2.65274  -17.56710   14.28591
       O    -2.91856  -18.41344   13.88263
      H1    -3.71770  -18.18952   13.36821
       H    -1.48311   -8.51746   20.12183
       O    -1.63141   -8.52560   19.17164
      H1    -0.77828   -8.74211   18.76345
       H     7.18810   -9.23617   14.48327
       O     8.08875   -9.52544   14.38898
      H1     8.33135   -9.43001   13.38623
       H     1.89251  -15.12693   12.71411
       O     2.37641  -15.57613   12.01941
      H1     3.29498  -15.32438   12.26370
       H     8.53340  -13.93249   18.76185
       O     8.47976  -13.38202   18.02991
      H1     9.21396  -12.69459   18.23284
       H     4.13690  -11.49293   13.73295
       O     5.06920  -11.56385   13.46264
      H1     5.43834  -10.76484   13.93535
       H     5.88764  -12.93678   16.15019
       O     6.01909  -13.49529   15.37982
      H1     5.71122  -12.86357   14.66145
       H     8.68819  -16.40117   17.69310
       O     8.27258  -16.71853   18.48124
      H1     7.29957  -16.84287   18.28053
       H    -1.90428  -15.17350   13.53171
       O    -1.43984  -14.49244   13.01285
      H1    -1.46312  -14.91488   12.10897
       H     6.31109  -15.59592   14.67917
       O     6.49062  -16.35692   14.11087
      H1     7.34928  -16.59738   14.39909

