180
frame 124 | Written by MDAnalysis XYZWriter (release 2.4.3)
       H    16.55895   -5.26422    8.26671
       O    17.34763   -4.73781    8.17464
      H1    18.02403   -5.39379    8.13383
       H     8.43477   -8.39305   16.06629
       O     8.07873   -7.53848   16.43471
      H1     8.98501   -7.18700   16.49456
       H    15.61695   -8.23339   16.34467
       O    16.12327   -7.94170   17.09455
      H1    16.48291   -8.74259   17.53795
       H     9.62480  -13.43659   10.27001
       O    10.47585  -13.54244    9.81182
      H1    11.09478  -13.75753   10.54767
       H     6.87673   -9.67409    9.15515
       O     7.63190  -10.32048    9.18414
      H1     8.09855  -10.23118   10.00231
       H    14.19018   -7.42173    5.24026
       O    14.22340   -7.93499    6.07672
      H1    15.13870   -7.85940    6.37755
       H    14.82085  -14.68112   13.98737
       O    15.54041  -14.03987   13.72222
      H1    15.31128  -13.26966   14.30809
       H     6.59139   -4.78734   11.33232
       O     7.51143   -4.44332   11.27477
      H1     8.02597   -5.25802   11.06475
       H    13.09366   -7.68775    8.03177
       O    12.24381   -7.88887    8.48185
      H1    12.07708   -8.72238    8.13789
       H    11.35033   -3.86497   14.50250
       O    11.70325   -3.04072   14.11504
      H1    12.35770   -2.85605   14.77482
       H    13.62041  -13.74656   11.06349
       O    13.40034  -13.06472   11.66052
      H1    14.18324  -13.17342   12.29177
       H    12.53382  -10.35848    5.16756
       O    12.76079  -10.08763    6.11383
      H1    13.48421   -9.43500    6.05596
       H    16.43049  -10.15062   18.93615
       O    17.11554  -10.35922   18.30442
      H1    17.52577  -11.21365   18.56482
       H    13.29871   -9.27080   15.11589
       O    13.90481   -9.24571   15.90652
      H1    13.57894   -8.50025   16.47296
       H    13.51287   -3.46252   11.37073
       O    12.53770   -3.66719   11.54765
      H1    12.36411   -3.24898   12.41411
       H     6.79769  -12.73418   10.71937
       O     7.76800  -12.81701   10.82908
      H1     8.09511  -11.92129   10.62578
       H    13.27085  -11.69655    7.41188
       O    13.53196  -12.67020    7.66509
      H1    13.92676  -12.44694    8.53261
       H     9.49548   -9.16052   17.58992
       O    10.37451   -8.97441   17.92905
      H1    10.18610   -8.69927   18.83579
       H    17.86426  -10.70790    7.34683
       O    18.31456  -10.17398    8.02100
      H1    18.05487  -10.54764    8.87586
       H    15.12379  -16.01111   11.31589
       O    14.97353  -15.47598   10.54956
      H1    14.51565  -16.10671    9.97533
       H     7.42934  -10.81090   16.56976
       O     8.27960  -10.45164   16.84408
      H1     8.97411  -11.13426   16.60357
       H    12.15106  -10.95187   17.78122
       O    12.52866  -11.32160   16.94612
      H1    13.13224  -10.53965   16.65810
       H    13.02831  -16.80658   16.26106
       O    13.07766  -16.45983   15.34403
      H1    12.17952  -16.07947   15.18362
       H    11.67352   -6.69675   10.33234
       O    11.10225   -5.91262   10.56594
      H1    11.52823   -5.24905   11.07821
       H    11.14484   -9.70373   14.28235
       O    11.20840  -10.34687   13.52728
      H1    11.08680  -11.21142   13.94893
       H    16.98615   -3.26895   11.55468
       O    17.89177   -2.91129   11.67212
      H1    18.39775   -3.58053   12.16346
       H    15.17853  -17.36610   13.56489
       O    15.50455  -16.71467   12.90782
      H1    16.40257  -16.63348   13.16506
       H    11.83209   -8.06396   17.96934
       O    12.65493   -7.52042   17.75746
      H1    12.50568   -6.61012   18.14110
       H    11.24614  -12.97650    6.90590
       O    10.49906  -13.60759    6.94977
      H1    10.58156  -13.78975    7.94606
       H    17.41875  -11.37294   11.08819
       O    16.54671  -11.19178   11.44053
      H1    16.80924  -10.48942   12.02427
       H    10.42586  -15.37063   13.79996
       O    10.51003  -15.69685   14.72262
      H1    10.37098  -14.88442   15.24252
       H    12.41076  -10.97480    9.76331
       O    11.54946  -10.97297    9.34407
      H1    11.31043  -11.89435    9.27135
       H    18.61137  -16.53139   11.84632
       O    18.43954  -15.55877   11.89646
      H1    17.51696  -15.57999   11.74471
       H    16.59389   -4.86644   16.61346
       O    17.39737   -5.46215   16.53951
      H1    16.98081   -6.34680   16.79306
       H    14.76667  -11.01199   16.03888
       O    15.04347  -11.88772   15.76799
      H1    14.37325  -12.44279   16.17376
       H    13.64980  -15.10438   16.27792
       O    13.95063  -14.17744   16.46634
      H1    13.83901  -14.07909   17.36850
       H    18.70802   -9.31366   11.15533
       O    18.04411   -8.72917   11.53174
      H1    18.52160   -7.97873   11.88716
       H    17.69000  -12.93618    6.75663
       O    16.84368  -13.38864    7.06910
      H1    17.09334  -13.71863    7.94752
       H    15.49251   -2.89196   10.43098
       O    15.34460   -3.82097   10.88933
      H1    15.40190   -4.45177   10.18361
       H     9.86063   -5.15080   13.20769
       O    10.12976   -5.44233   14.07247
      H1     9.47382   -4.97825   14.62074
       H    12.19472   -5.35469    8.57138
       O    12.58474   -4.62359    8.11613
      H1    12.69117   -4.95097    7.19112
       H    13.90945  -10.72648   12.23444
       O    13.71535   -9.79208   12.54015
      H1    12.72482   -9.87452   12.74820
       H     7.23084   -7.36949   11.20069
       O     8.07573   -7.14722   10.73700
      H1     8.74607   -7.83403   10.99421
       H    18.10671  -14.60536   10.13811
       O    17.47425  -14.05827    9.64112
      H1    16.67837  -14.57842    9.72793
       H    17.36772  -12.18373   13.05155
       O    18.01485  -12.54262   13.66876
      H1    17.64638  -13.46830   13.65750
       H    16.01087   -8.34975   10.78065
       O    15.16805   -8.60917   10.38404
      H1    14.66982   -9.04793   11.12238
       H    15.63945   -9.68864   13.75881
       O    16.44980  -10.00938   14.08717
      H1    16.19185  -10.78382   14.58643
       H     9.29225   -9.91274    6.09202
       O     9.33252   -8.88921    6.10100
      H1     8.80808   -8.67908    6.88900
       H    10.31185   -7.19362   14.77042
       O    10.52712   -8.06392   15.18336
      H1    10.61411   -7.82565   16.15258
       H     9.81825  -10.11552   12.08581
       O     9.51189  -10.04316   11.13742
      H1    10.28319  -10.24446   10.59849
       H    17.69792   -8.23870   16.06614
       O    18.39018   -8.55105   15.38759
      H1    17.80856   -9.06196   14.87646
       H    16.06538   -7.42970    8.29935
       O    16.69139   -7.79280    7.59053
      H1    17.19190   -8.52110    7.97080
       H    16.96597  -14.03899   16.23664
       O    17.90367  -14.32015   16.25081
      H1    18.32059  -13.47981   16.08754
       H    14.98380  -12.87858    6.24586
       O    14.71234  -12.74157    5.30139
      H1    15.13705  -13.48343    4.87771
       H    18.70004  -12.60422    9.95083
       O    18.92063  -11.76585   10.44536
      H1    19.60413  -12.09013   11.08427
       H     8.01285  -12.99362   12.59743
       O     8.25132  -12.67894   13.47466
      H1     8.15173  -11.71970   13.28278
       H    10.76108  -15.91883   11.61561
       O    10.94686  -15.10186   12.12090
      H1    11.89283  -15.09124   12.10847
       H    14.25701   -5.59518    8.86483
       O    15.12211   -5.99649    9.08092
      H1    14.87236   -6.70893    9.68328
       H    11.07557  -12.65899   16.52340
       O    10.12776  -12.61985   16.31203
      H1     9.58408  -13.08393   17.02343
       H     6.11436  -10.17255   14.60699
       O     6.43910  -10.18864   13.69489
      H1     6.45525   -9.28946   13.34122

