180
frame 11 | Written by MDAnalysis XYZWriter (release 2.4.3)
       H    -4.60151    4.75042    6.23578
       O    -5.00723    5.26384    5.50155
      H1    -5.71100    5.74034    5.96989
       H    -6.52580    3.99665   12.59892
       O    -5.92567    4.73464   12.90249
      H1    -5.97800    4.52624   13.89051
       H    -2.45614    3.32626    6.85824
       O    -3.36174    3.17756    6.40948
      H1    -3.17276    2.41188    5.81639
       H    -4.41663    5.70304   12.34061
       O    -3.54405    6.01100   12.62558
      H1    -3.41234    6.69015   11.93448
       H   -11.66568    7.31735   14.87272
       O   -11.12209    7.03697   14.09604
      H1   -10.24624    7.27529   14.38069
       H   -13.18996    7.69347   11.57842
       O   -14.00104    7.72120   12.11836
      H1   -14.63868    7.79426   11.36722
       H    -6.71664    9.18171    7.98052
       O    -5.94545    9.48100    7.53519
      H1    -5.84487   10.38033    7.87154
       H    -2.83849    8.38497    6.77408
       O    -2.83750    8.31925    5.80712
      H1    -2.60713    7.40797    5.66698
       H    -5.38305    5.70819    9.87669
       O    -4.78230    5.19316    9.32731
      H1    -4.34877    4.56878    9.92643
       H    -4.47091   13.70827    6.40360
       O    -4.63160   12.79858    6.06475
      H1    -5.39069   12.54873    6.59737
       H   -12.05808    4.30922   14.41599
       O   -11.08718    4.44288   14.25098
      H1   -11.04427    5.39929   14.42356
       H   -12.21797    5.32593    5.33184
       O   -12.98106    4.77043    5.51073
      H1   -13.38505    4.65935    4.59737
       H    -8.67417    9.20648   10.17042
       O    -8.28287    9.36146   10.96170
      H1    -9.08433    9.13928   11.49434
       H    -2.33507    2.89002   10.23702
       O    -2.70486    3.67222   10.69370
      H1    -2.94187    3.28440   11.56572
       H    -8.96062    4.84921    8.80058
       O    -8.64089    5.55727    9.40526
      H1    -9.39762    5.63010   10.03327
       H   -11.75352   13.49976    8.33941
       O   -10.91689   13.79806    8.74697
      H1   -11.06020   13.48990    9.65293
       H   -11.32033    2.57066   11.35310
       O   -10.85241    3.28617   10.90761
      H1   -11.31530    3.37232   10.07513
       H    -9.25337    4.13174    7.06252
       O    -8.55937    3.68432    7.53821
      H1    -9.08760    2.93105    7.81526
       H    -8.27465    7.25579   13.58004
       O    -8.59889    7.56119   14.45590
      H1    -7.99826    7.00746   14.99282
       H    -6.91405    3.39274    7.84078
       O    -6.03154    3.03457    8.06678
      H1    -5.51638    3.90633    8.21963
       H   -10.47362   11.18694    8.45668
       O   -10.75657   10.31251    8.73184
      H1   -10.92577    9.83669    7.89007
       H   -12.44492    1.76726    6.50272
       O   -11.74657    2.27320    6.00435
      H1   -12.23471    3.01634    5.70003
       H    -8.05400    6.14132    5.89591
       O    -7.36144    6.77759    5.87579
      H1    -7.29985    7.06305    4.96175
       H    -4.43804    8.62197    4.76041
       O    -5.37277    8.89431    4.71921
      H1    -5.58498    9.11896    5.65254
       H   -11.64136    7.26678    9.88518
       O   -12.07833    8.11817    9.75771
      H1   -11.40942    8.78149    9.58270
       H    -9.97231    6.53863    3.25017
       O    -9.43989    5.76831    3.20793
      H1    -9.85126    5.41602    2.39135
       H    -8.34924    3.85748    4.26803
       O    -8.84002    3.01561    4.29272
      H1    -8.39816    2.42334    4.88839
       H    -9.74838    9.56206    4.11662
       O   -10.66993    9.66433    4.44695
      H1   -10.68379   10.51071    4.84010
       H   -11.13764    6.50423   12.20831
       O   -10.82492    6.01527   11.40999
      H1   -10.97793    5.09473   11.77274
       H    -7.37917    9.98773    4.05827
       O    -8.05526    9.62169    3.51284
      H1    -7.62848    9.05513    2.84915
       H    -8.38385   11.24269   11.54006
       O    -8.37773   11.92589   12.25628
      H1    -8.61388   12.77518   11.81178
       H    -8.10213    3.40807   12.95448
       O    -7.71586    3.05387   12.14199
      H1    -8.49978    3.18531   11.53382
       H   -13.09497    7.24236    8.35783
       O   -13.44786    6.48817    7.86555
      H1   -13.10088    6.75371    6.95122
       H    -7.37619    6.23836    2.48669
       O    -6.55886    6.59781    2.80637
      H1    -6.09519    5.82406    3.14861
       H   -11.84312   12.35959   11.79101
       O   -12.30033   12.74388   11.01080
      H1   -12.89806   12.06614   10.72323
       H    -7.09973   13.18630    7.94289
       O    -6.74589   12.29696    8.00324
      H1    -6.29257   12.32624    8.89922
       H    -4.06857    8.82187   11.25494
       O    -3.23304    8.34851   11.01800
      H1    -3.08876    8.50478   10.08878
       H    -4.57551   11.19269   11.48877
       O    -5.05620   11.46935   10.70995
      H1    -5.21168   12.39319   10.90257
       H    -6.92177   12.86082   14.66037
       O    -6.37960   12.31029   14.06088
      H1    -7.05027   12.18976   13.31838
       H   -13.51322    3.55683   10.17884
       O   -13.97123    3.35175   11.02865
      H1   -14.47667    4.16910   11.15050
       H   -10.40879   12.99842    7.07671
       O   -10.55798   12.46873    6.28569
      H1   -10.30868   13.00551    5.51548
       H   -14.29545    4.20996    7.33768
       O   -15.03685    3.85642    7.85978
      H1   -15.44195    4.69265    8.19733
       H   -10.90944    1.19894    8.53698
       O    -9.93685    1.34134    8.59295
      H1    -9.81142    1.07901    9.53171
       H    -2.14784    5.16640    4.78109
       O    -2.60028    5.92407    4.41959
      H1    -3.47244    5.75893    4.80948
       H    -7.74373    7.38975    7.33405
       O    -8.07822    7.85959    8.09759
      H1    -8.32515    7.12586    8.68939
       H   -14.22573   11.40507    7.59453
       O   -14.70570   10.62468    7.93516
      H1   -14.53056    9.88695    7.36692
       H    -4.39342    7.06920   15.03957
       O    -5.14049    7.20564   14.41889
      H1    -4.79598    6.83379   13.55702
       H   -14.31933   10.44004    5.06283
       O   -13.36047   10.53395    5.21611
      H1   -13.06359   10.65079    4.32260
       H   -10.00973    5.46664    5.14290
       O   -10.20814    5.67423    6.09758
      H1   -10.46054    6.64776    6.13310
       H    -2.83994    9.87754    8.52634
       O    -3.24131    8.94267    8.54068
      H1    -4.20511    9.03648    8.62126
       H   -11.83045    8.28645    2.14680
       O   -11.47045    7.53392    2.63626
      H1   -12.02836    7.56756    3.44025
       H   -12.40290    4.74918    8.45224
       O   -12.16580    3.83459    8.64327
      H1   -11.84854    3.55073    7.76906
       H    -7.71898    7.58735   11.55732
       O    -7.35676    6.85027   12.06460
      H1    -7.65982    6.10361   11.56297
       H    -1.87923    5.22598   10.00288
       O    -1.29638    5.98701    9.85343
      H1    -1.31916    6.42250   10.74513
       H   -13.00957    8.52816    5.30488
       O   -13.17572    7.65763    5.06047
      H1   -14.06812    7.49032    5.30441
       H   -10.38893    8.92098    6.17868
       O   -10.50784    8.26677    6.88831
      H1    -9.63165    8.10947    7.29132
       H    -4.72631    0.96744    9.86443
       O    -5.50694    1.34359   10.32231
      H1    -5.74734    2.02215    9.63570
       H   -11.19895    8.36548   12.91681
       O   -10.91736    8.98978   12.26820
      H1   -11.23125    9.80796   12.71795
       H   -13.44306    9.88321   10.65069
       O   -14.01714   10.70590   10.61217
      H1   -13.98654   10.65157    9.66969
       H    -5.80705    2.08919    6.26851
       O    -6.05507    1.80225    5.32820
      H1    -5.96773    2.61250    4.81545

