180
frame 10 | Written by MDAnalysis XYZWriter (release 2.4.3)
       H    14.68559   -6.02793  -17.80983
       O    14.79760   -5.51686  -18.62553
      H1    14.00822   -5.83408  -19.10212
       H    11.95857  -11.69832  -13.71883
       O    12.38538  -11.17698  -14.45542
      H1    12.91622  -10.63111  -13.88344
       H    12.62970    4.39194  -17.96453
       O    11.96092    4.89015  -17.44499
      H1    11.31291    4.20403  -17.32691
       H     9.30525   -6.72176  -19.26607
       O     9.98034   -7.29960  -19.60779
      H1     9.82071   -8.17287  -19.16114
       H    18.04860   -7.33349  -15.55451
       O    18.03169   -6.48703  -15.08992
      H1    18.98427   -6.27859  -15.20127
       H    16.61917   -6.57752  -13.63403
       O    15.97763   -6.63565  -12.94052
      H1    15.73995   -5.71847  -12.82438
       H    18.10191   -2.99239  -13.19878
       O    18.88579   -3.17987  -12.65404
      H1    19.03532   -2.28853  -12.33398
       H    17.53679   -0.71734  -10.54474
       O    17.06012   -0.09524  -11.14372
      H1    17.70686    0.65624  -11.24932
       H    11.90215   -4.04842  -16.65926
       O    12.36867   -3.82153  -15.78810
      H1    12.65484   -4.68306  -15.40195
       H    13.35718    0.82290  -11.49093
       O    12.86283    0.00249  -11.64154
      H1    13.14627   -0.46527  -10.88420
       H    13.27631   -5.56731  -11.27982
       O    12.31924   -5.77933  -11.46312
      H1    11.94688   -5.47223  -10.60936
       H    18.73561   -2.59956   -9.73723
       O    18.62174   -1.63531   -9.79081
      H1    19.12484   -1.39361  -10.65466
       H    18.72144    2.58376  -12.82882
       O    18.86321    1.66281  -12.54620
      H1    19.44875    1.89145  -11.78006
       H    12.35541   -4.22136  -12.65951
       O    12.70049   -3.31276  -12.57882
      H1    12.32257   -3.03221  -13.44588
       H    13.99732    4.51968  -19.69672
       O    13.62772    3.80972  -19.13085
      H1    13.24312    3.26118  -19.77640
       H    18.33265  -10.89080  -12.49366
       O    19.17762  -11.27132  -12.22013
      H1    19.12795  -10.80434  -11.35201
       H    17.86838   -9.15710  -17.48091
       O    17.54176   -9.20160  -16.59207
      H1    18.25607   -9.63803  -16.01825
       H    15.50949    1.01222  -10.42924
       O    15.02872    1.83141  -10.80565
      H1    15.65871    2.56279  -10.60244
       H    11.12816   -9.60121  -17.13730
       O    10.40631   -9.89241  -16.52241
      H1    10.80917  -10.68007  -16.17076
       H    11.21545   -1.20664  -15.73090
       O    10.53892   -1.28894  -16.44176
      H1     9.76955   -1.35657  -15.80392
       H    15.16765    5.14794  -12.80200
       O    14.44228    5.77892  -12.71852
      H1    13.87231    5.62523  -13.49902
       H    11.18899    2.49806  -16.41456
       O    10.41200    2.69855  -17.01877
      H1     9.85483    3.21759  -16.43502
       H    15.84745    3.20722  -13.74578
       O    16.36082    3.91010  -13.27263
      H1    16.69874    4.36617  -14.01316
       H    15.34725   -3.96616   -9.21889
       O    15.49012   -4.69397   -9.82187
      H1    16.41522   -4.85718   -9.86923
       H    15.69563   -2.73869  -17.91900
       O    15.95415   -3.16139  -18.74043
      H1    15.35054   -3.91449  -18.73827
       H    14.00106   -2.76951  -16.38904
       O    14.80287   -2.25521  -16.42846
      H1    15.30041   -2.42676  -15.66474
       H    14.22524  -12.40644  -19.01017
       O    14.87695  -11.81875  -19.50615
      H1    15.72551  -11.83095  -18.99791
       H    16.56236   -1.49719  -14.42000
       O    16.75724   -2.46625  -14.51483
      H1    16.26210   -2.81697  -13.74736
       H    14.43024   -7.17680   -8.43830
       O    14.41279   -6.37487   -7.86605
      H1    14.90946   -5.70837   -8.44200
       H    18.25429   -4.49805   -8.66215
       O    18.39509   -4.25705   -9.61505
      H1    18.96380   -4.98773  -10.01106
       H    15.34883   -4.08992  -11.58708
       O    15.22451   -3.93453  -12.52330
      H1    14.33513   -3.57615  -12.51423
       H    14.33223   -2.72683   -7.61890
       O    15.16253   -2.48177   -8.02658
      H1    15.79560   -2.45592   -7.22365
       H    11.29494   -2.40813  -17.90320
       O    11.32139   -3.25877  -18.30433
      H1    10.38917   -3.25016  -18.65070
       H    10.17421   -0.44999  -12.17494
       O    10.43318   -1.39094  -12.23477
      H1    10.79369   -1.36346  -11.33512
       H    10.64392   -3.82635  -14.97647
       O     9.77908   -3.65790  -14.53836
      H1     9.33598   -4.47003  -14.77174
       H    14.94865    3.04187  -18.83194
       O    15.80372    2.62726  -18.49228
      H1    15.40177    1.76757  -18.30848
       H    18.72893    6.18312  -16.45421
       O    19.56805    6.33121  -16.81978
      H1    19.41984    5.82562  -17.65048
       H    13.75513   -8.00368  -14.78067
       O    14.52472   -8.60926  -14.68105
      H1    14.98023   -8.19788  -13.92629
       H    10.00440   -0.11481  -17.88709
       O     9.67227    0.52148  -18.57070
      H1     9.83019    1.39327  -18.16304
       H    11.87025   -7.34877  -14.07175
       O    12.24666   -7.08104  -14.91273
      H1    12.08777   -7.86441  -15.41605
       H    15.22177  -11.91493  -15.14862
       O    15.30844  -12.74095  -14.68486
      H1    16.13972  -13.09439  -15.05446
       H    13.43684   -8.77834  -18.12663
       O    12.60671   -8.39246  -17.79533
      H1    12.30115   -8.05474  -18.64406
       H    18.14314   -3.08835  -16.15728
       O    18.36593   -3.27715  -17.09620
      H1    17.47525   -3.31361  -17.44966
       H    14.17950   -9.99800  -16.32356
       O    14.74484  -10.63573  -16.75943
      H1    15.54254  -10.04907  -16.69497
       H    13.07918    1.93150  -14.99415
       O    12.55379    1.72152  -15.80706
      H1    12.17106    0.84691  -15.50013
       H    12.55411   -0.46588  -13.51010
       O    12.23434   -1.05224  -14.23916
      H1    11.47718   -1.53402  -13.81118
       H    14.25835   -0.22916  -17.39098
       O    14.17765    0.64916  -17.69913
      H1    13.90342    1.09981  -16.90947
       H    18.11772  -11.69991  -18.17366
       O    17.70906  -11.79934  -19.01465
      H1    18.07517  -11.34023  -19.71933
       H    18.80157    2.67391  -17.09108
       O    17.89267    2.63703  -16.59713
      H1    17.22356    2.85158  -17.28182
       H    15.98255    4.88763  -10.34724
       O    16.51765    4.08134  -10.50205
      H1    16.43109    3.87929  -11.44881
       H    13.95493  -10.70744  -12.14097
       O    13.23420  -10.09715  -12.07412
      H1    12.68506  -10.45714  -11.34830
       H    12.43439    0.56910  -18.91762
       O    12.20649    0.95245  -19.76093
      H1    11.23495    0.79463  -19.71177
       H    15.55548   -8.32460  -10.56062
       O    14.91265   -8.42368   -9.87627
      H1    14.03566   -8.67286  -10.26827
       H    11.64930   -8.85521  -12.62234
       O    11.12426   -8.05501  -12.62086
      H1    11.62261   -7.45151  -12.03756
       H    11.50858   -6.42466  -19.79148
       O    12.31326   -5.79075  -19.70382
      H1    11.93993   -5.08096  -19.15702
       H    17.09002    0.37824  -14.12208
       O    16.35828    0.26390  -14.80902
      H1    16.90027    0.42920  -15.61513
       H    15.76531  -11.65725  -13.30151
       O    16.06079  -10.80519  -12.89647
      H1    15.75177  -10.11544  -13.49470
       H    15.22029    1.23399  -14.05604
       O    14.53623    1.93585  -13.92580
      H1    14.42792    1.89859  -12.96221
       H    19.42875   -0.31847  -15.62119
       O    19.08431   -0.10114  -14.73257
      H1    19.62518    0.71576  -14.54268
       H    18.19776   -7.76658  -10.80208
       O    17.20572   -7.87366  -10.84523
      H1    16.97465   -7.24098  -11.56955

