180
frame 11 | Written by MDAnalysis XYZWriter (release 2.4.3)
       H     9.06439   10.76878  -10.50777
       O     9.58247   11.57652  -10.31666
      H1     8.88628   12.21055  -10.34658
       H     6.18918   12.15373  -12.00214
       O     5.70965   12.96361  -11.77396
      H1     5.63593   13.41943  -12.65213
       H    16.13562   10.26569   -7.59078
       O    15.70126   11.08988   -7.33961
      H1    15.27032   11.24705   -8.17593
       H     9.11405   14.07344   -6.70271
       O     9.85930   14.59223   -6.39560
      H1     9.51058   14.99327   -5.57057
       H    12.12032   12.92879   -0.96969
       O    11.55632   13.47392   -0.41903
      H1    11.56522   14.30561   -0.88257
       H     5.24816    9.21789   -5.60204
       O     4.37760    9.11209   -5.23837
      H1     3.82221    8.87333   -6.02591
       H     4.96299   11.87858   -3.38052
       O     5.88931   11.45503   -3.23363
      H1     6.18585   11.50008   -4.15672
       H    13.23347    5.80763   -5.98680
       O    13.01565    5.48104   -5.11460
      H1    13.66564    5.97919   -4.61742
       H    14.17053   14.51835   -2.70120
       O    13.52743   13.88225   -2.30386
      H1    12.71065   13.90647   -2.80138
       H    12.12113    6.05039   -8.53333
       O    12.98634    6.12055   -8.93737
      H1    13.20774    5.18144   -8.94528
       H    11.31632   11.28576   -2.64864
       O    12.23597   11.01149   -2.88353
      H1    12.73297   10.99419   -2.03769
       H    12.70872   12.47116   -8.68972
       O    12.25137   12.88236   -7.94378
      H1    11.62422   13.45854   -8.37435
       H     5.55599   10.28570   -1.04082
       O     5.61786    9.41867   -1.45697
      H1     5.68768    9.75662   -2.35081
       H     7.21334    6.90656   -8.18764
       O     7.96764    6.58346   -8.74880
      H1     7.46650    6.29250   -9.57614
       H    10.31241   16.58598   -8.76401
       O    10.67479   15.65325   -8.79853
      H1    10.46085   15.43550   -7.88582
       H    11.81840    8.85854   -3.56955
       O    12.10827    8.02132   -3.24453
      H1    12.32140    8.21778   -2.30300
       H     8.59538   13.39090   -2.36861
       O     8.00567   14.17937   -2.28586
      H1     8.41041   14.48356   -1.49876
       H    14.38832   12.54535   -2.81919
       O    15.22717   12.02557   -2.88689
      H1    15.03085   11.22019   -3.39853
       H    14.41562    8.70050   -7.24134
       O    13.60866    8.83143   -7.79492
      H1    13.28484    7.98003   -8.05977
       H     8.35159   19.07111   -3.20709
       O     7.81959   18.26525   -3.51926
      H1     8.45396   17.68506   -3.93520
       H    11.26328   13.24183   -5.27514
       O    11.98573   13.39684   -4.59549
      H1    11.99000   12.52869   -4.09360
       H     2.71708   11.95287   -5.31756
       O     2.69068   11.42669   -6.14760
      H1     1.74360   11.43176   -6.32322
       H     9.40512    7.59502   -8.77009
       O    10.22985    8.08779   -8.86453
      H1     9.96958    8.89661   -8.39624
       H     9.36789    8.10478  -12.92239
       O     9.59861    7.34980  -13.45801
      H1    10.51258    7.51227  -13.71511
       H     3.89892   16.37979   -5.47974
       O     3.57988   15.43423   -5.63670
      H1     3.45138   15.34607   -6.55972
       H     4.43048    9.61902  -10.25644
       O     5.07955   10.29331  -10.20722
      H1     4.60455   11.04453   -9.79557
       H     6.37747   10.88798   -7.73555
       O     6.99861   10.73377   -8.52138
      H1     6.32537   10.43067   -9.16256
       H     8.96315   11.49123   -1.89081
       O     9.41027   11.65042   -2.72766
      H1     9.05705   11.04360   -3.45152
       H     8.70412   10.50361   -5.80645
       O     8.51116    9.92415   -5.01659
      H1     8.96146    9.15450   -5.30301
       H     7.38454    4.85460  -10.87926
       O     7.51545    5.82469  -11.21964
      H1     8.48836    5.88251  -11.40502
       H    13.69152    9.02065  -11.07455
       O    14.47604    9.20661  -10.52657
      H1    14.22073    8.94098   -9.60856
       H     4.82389   14.02756   -2.94944
       O     5.16222   14.82741   -2.53273
      H1     6.07882   14.43679   -2.45801
       H    10.39904    7.00584  -10.61139
       O    10.45490    6.18980  -11.17763
      H1    10.54769    6.63380  -12.04756
       H    10.33169    5.88627   -1.90479
       O     9.89946    6.71409   -2.05941
      H1    10.70825    7.17615   -2.38554
       H     7.52954    9.75475  -12.25795
       O     8.21327    9.25576  -11.80196
      H1     7.69401    8.44113  -11.71255
       H     9.76218    6.94110   -6.02121
       O     9.05557    7.04253   -5.35628
      H1     8.52106    6.17514   -5.48145
       H     7.40870    8.66370   -6.31735
       O     6.70526    8.59449   -6.90677
      H1     6.81603    9.27897   -7.62106
       H    10.83363   11.98225  -12.04180
       O    11.59134   12.19460  -12.63204
      H1    11.38002   13.16542  -12.59616
       H     9.94810   18.73109   -6.60893
       O    10.66302   19.10565   -6.09722
      H1    10.52173   18.72968   -5.15911
       H     8.10720   16.13568  -10.54053
       O     7.92565   15.68920   -9.68067
      H1     8.75268   15.28290   -9.48324
       H    12.55497   15.63999  -11.90580
       O    11.73999   15.13699  -12.20590
      H1    11.95776   15.00874  -13.15973
       H     9.15501   16.80177  -12.90623
       O     9.31664   16.93422  -11.95854
      H1    10.05900   16.35011  -11.72812
       H    16.82696   15.47330   -6.47260
       O    16.23390   15.00621   -7.16689
      H1    15.52288   14.66970   -6.65202
       H     9.70687    5.41403   -8.09970
       O    10.56931    5.20883   -7.72063
      H1    10.32520    4.69875   -6.93522
       H    10.60409   12.07883   -7.68756
       O     9.68524   11.74217   -7.51740
      H1     9.37852   11.38337   -8.40390
       H    13.89576   10.18731  -13.35772
       O    13.16602   10.07650  -12.68883
      H1    12.71827   10.98992  -12.60260
       H    13.04642   14.68778   -5.22290
       O    13.81096   15.19584   -5.47418
      H1    13.49538   15.65532   -6.31166
       H     8.53166   17.05141   -8.62877
       O     8.94431   17.80053   -8.21667
      H1     8.81194   18.51474   -8.86876
       H    16.22124   15.75410   -3.27796
       O    15.22386   15.91740   -3.24648
      H1    14.82768   15.60667   -4.14917
       H    12.33573   16.60807   -7.88104
       O    13.05012   16.94197   -7.38681
      H1    13.74153   16.99669   -8.03643
       H    14.73433   12.05577  -10.33673
       O    14.20918   11.64531   -9.61493
      H1    14.38852   10.71438   -9.93704
       H     4.32553   13.45597   -8.56995
       O     4.56301   12.64330   -9.01161
      H1     5.11849   12.98473   -9.70441
       H    12.69126    9.57270   -6.55869
       O    12.23820    9.81711   -5.73188
      H1    12.16399   10.79162   -5.73790
       H    14.53652    9.60619   -5.03384
       O    15.29107   10.11032   -4.77324
      H1    15.18833   10.75408   -5.49957
       H     2.98636   12.97271   -3.63013
       O     3.79476   13.17140   -4.09989
      H1     3.68809   14.00660   -4.58402
       H     4.93386   11.95282   -6.82543
       O     5.53982   11.46877   -6.31155
      H1     4.99695   10.69658   -6.04241
       H     5.63590   17.56308   -8.34922
       O     5.48629   16.62653   -8.29765
      H1     6.24787   16.24400   -8.81632
       H     8.43922   15.45946   -3.63312
       O     9.13605   15.95484   -4.09896
      H1     9.87054   15.87234   -3.48000
       H     5.35314   10.42844  -13.65796
       O     6.25734   10.69129  -13.36346
      H1     6.77646   10.74569  -14.18862
       H    14.11149    7.86094   -3.76879
       O    14.87139    7.28305   -4.02696
      H1    15.52968    7.40977   -3.34003

