180
frame 1 | Written by MDAnalysis XYZWriter (release 2.4.3)
       H   -18.53864  -16.75397    7.26482
       O   -19.39553  -16.45558    7.64606
      H1   -19.04992  -15.68984    8.17906
       H   -17.11401   -0.89127    6.05599
       O   -17.36769   -1.78755    6.01469
      H1   -18.02264   -1.79227    6.72088
       H   -17.21087   -7.08745   -0.02207
       O   -17.08585   -6.24368    0.47882
      H1   -16.52352   -6.60441    1.17526
       H   -15.47329  -10.45788   12.55486
       O   -15.20254  -10.15777   13.43284
      H1   -15.03429   -9.23891   13.21879
       H   -16.95040   -0.28499   11.73553
       O   -16.30989   -0.00538   12.37935
      H1   -16.81983    0.21216   13.19154
       H   -19.11548   -6.11750   16.19085
       O   -19.73603   -6.52266   16.82256
      H1   -19.60831   -7.45169   16.63308
       H   -18.69618   -1.94516   14.46483
       O   -18.97947   -2.15358   13.58545
      H1   -18.91392   -3.11047   13.67260
       H   -14.41239   -0.46246    9.92546
       O   -13.92411   -1.30483    9.90038
      H1   -14.51184   -1.79414    9.29569
       H   -16.77930  -11.79272   16.21301
       O   -16.85431  -11.49272   15.29365
      H1   -15.97250  -11.44207   15.00632
       H   -13.26152   -7.22607    4.57268
       O   -12.92098   -6.49544    3.99534
      H1   -13.75008   -6.04450    3.79905
       H   -18.19305   -2.43070    4.57220
       O   -18.57890   -2.87233    3.77142
      H1   -19.07908   -2.14495    3.38045
       H   -19.15492  -12.40381    2.79166
       O   -19.47565  -11.95786    2.01412
      H1   -19.48749  -11.06068    2.32240
       H   -11.40542   -7.21048    7.57197
       O   -10.84023   -6.50121    7.23418
      H1   -11.51771   -5.78826    7.04052
       H   -18.00792  -13.57483    6.47278
       O   -18.53193  -12.80577    6.49378
      H1   -18.16590  -12.32285    7.27722
       H   -19.31936   -9.49381    6.74674
       O   -18.36095   -9.30339    6.88797
      H1   -18.21585   -8.49513    6.46036
       H   -19.20517   -4.32037    5.42275
       O   -19.03637   -5.08675    5.95257
      H1   -19.13834   -4.75900    6.90272
       H   -18.07662   -8.31097    4.18211
       O   -17.75560   -7.40596    4.30375
      H1   -18.23701   -6.78296    3.71557
       H   -19.31528   -6.36482   11.91375
       O   -18.36922   -6.39169   12.05026
      H1   -18.25496   -7.09563   12.67840
       H   -17.22987  -10.95264    9.61209
       O   -16.95919  -11.17307    8.74506
      H1   -17.48485  -10.57502    8.19783
       H   -14.44790   -5.99214   11.14805
       O   -14.35238   -6.70752   10.52129
      H1   -14.02292   -6.31495    9.68612
       H   -16.33402   -7.71069    3.18540
       O   -15.74641   -7.28712    2.53658
      H1   -15.20534   -7.94768    2.11232
       H   -16.09463  -14.48878    9.25459
       O   -15.22177  -14.63524    8.96837
      H1   -15.16774  -15.59613    8.86201
       H   -18.44234  -10.64421   12.18958
       O   -17.84144  -11.04742   11.58309
      H1   -17.81179  -11.98633   11.85377
       H   -18.30120   -5.22310   13.73528
       O   -18.41645   -4.71102   14.51931
      H1   -17.84761   -3.94747   14.58197
       H   -15.01132  -11.60164    8.72744
       O   -14.14299  -11.95969    8.58863
      H1   -14.23349  -12.91552    8.47354
       H   -15.95726   -5.40076    3.54294
       O   -15.79356   -4.66822    4.09372
      H1   -16.12918   -5.01941    4.95016
       H   -13.31419   -7.45639   12.22145
       O   -13.79971   -7.66588   13.06581
      H1   -13.30630   -7.18926   13.75319
       H   -15.10402   -8.88293   15.91968
       O   -14.21385   -8.70484   16.37371
      H1   -13.64645   -9.23049   15.73368
       H   -17.49384  -11.26002    1.66862
       O   -16.65179  -10.91708    1.30460
      H1   -16.37790  -11.65230    0.76220
       H   -18.06609  -14.07993   10.75290
       O   -18.02912  -14.13357    9.78246
      H1   -18.44968  -13.22094    9.58655
       H   -12.92011  -14.96575   11.28754
       O   -12.78712  -14.48475   10.45565
      H1   -13.71439  -14.52769   10.03555
       H   -13.77925   -9.70878    1.25411
       O   -14.36352   -9.59467    2.07401
      H1   -15.12319  -10.17267    1.79239
       H   -13.63744   -7.34388    6.77367
       O   -13.59908   -6.83972    7.61105
      H1   -13.56927   -5.90372    7.28145
       H   -18.70327   -4.37938    2.62341
       O   -18.96189   -5.29132    2.35794
      H1   -18.23877   -5.40197    1.78253
       H   -14.83960   -4.05842   13.01666
       O   -14.68156   -4.27405   12.10019
      H1   -13.80865   -3.82891   11.88974
       H   -14.50005  -14.49087    3.57410
       O   -14.86621  -15.20206    4.13013
      H1   -15.16034  -14.65127    4.83636
       H   -19.03063    0.26203    5.49232
       O   -18.83728    0.94471    4.82055
      H1   -17.87918    0.79800    4.73227
       H   -13.26473   -9.80527   13.94360
       O   -12.46922  -10.30190   14.16441
      H1   -12.82011  -11.07254   14.67133
       H   -11.46226  -12.10560    5.92558
       O   -11.90714  -12.30303    6.76364
      H1   -12.79573  -12.00067    6.66501
       H   -15.44130  -14.19697    7.13965
       O   -15.83789  -13.87621    6.29938
      H1   -15.32870  -13.02694    6.15249
       H   -12.29852   -3.84436    6.70071
       O   -12.75451   -4.59000    6.39068
      H1   -12.53704   -4.70730    5.46602
       H   -18.62580   -9.01667    0.01308
       O   -17.71907   -8.87127   -0.33745
      H1   -17.25707   -9.63437    0.09563
       H   -17.86286  -10.26393   14.44230
       O   -18.46703   -9.61027   14.22971
      H1   -17.83393   -8.86383   14.16513
       H   -16.23746  -11.62006    4.53724
       O   -15.56043  -11.32136    5.09858
      H1   -14.85278  -11.25357    4.43800
       H   -16.28224   -4.49197   10.93318
       O   -16.97199   -4.65587   10.27426
      H1   -17.54297   -5.24497   10.87260
       H   -17.63796    0.89001    8.96407
       O   -17.97030    0.10452    9.37804
      H1   -17.34271   -0.57118    9.07767
       H   -12.30185   -2.66523   10.47127
       O   -12.32001   -3.33836   11.16433
      H1   -11.35561   -3.62210   11.13184
       H   -15.56305   -3.53967    8.43421
       O   -16.07924   -2.76373    8.39620
      H1   -15.85973   -2.34295    7.55846
       H   -17.19043  -13.55083    4.89132
       O   -17.34656  -13.36501    3.89424
      H1   -17.72214  -14.06785    3.43166
       H   -13.57563   -9.22653    6.20292
       O   -14.16747   -8.65828    5.67964
      H1   -14.97214   -9.19797    5.55915
       H   -17.46483  -14.20778   13.25643
       O   -17.15588  -13.30962   13.10952
      H1   -17.28726  -12.74354   13.94435
       H   -12.47425  -11.43426    3.70180
       O   -13.36615  -11.77285    3.40957
      H1   -13.56506  -10.91310    2.91958
       H   -13.90001   -2.14648    4.82341
       O   -14.00794   -2.59602    3.99033
      H1   -14.37900   -3.46549    4.41227
       H   -19.12298   -3.62092    8.63307
       O   -18.64167   -2.94247    8.12796
      H1   -17.68413   -3.07090    8.46136
       H   -12.05586  -10.45135    7.49025
       O   -12.13150   -9.49216    7.65029
      H1   -12.64081   -9.53194    8.42648
       H   -16.77286   -6.04173    9.35505
       O   -16.93451   -6.90079    8.92407
      H1   -16.13933   -7.42786    9.15910
       H   -15.27184   -1.54525    6.07414
       O   -14.37439   -1.50154    6.45319
      H1   -14.33411   -0.54233    6.50782
       H   -16.35112   -5.91860    7.47165
       O   -16.38765   -5.38624    6.61412
      H1   -17.30682   -5.48899    6.34748
       H   -16.61272   -6.55556   15.18079
       O   -16.63812   -7.21916   14.44711
      H1   -15.77506   -7.03058   14.03285
       H   -18.61280   -7.68256    9.44718
       O   -19.54434   -7.80124    9.33978
      H1   -19.60080   -7.92784    8.40500

