180
frame 0 | Written by MDAnalysis XYZWriter (release 2.4.3)
       H   -18.51916   -0.53497   -4.81246
       O   -18.40683    0.42853   -4.87816
      H1   -17.93045    0.59171   -4.06412
       H   -15.18382   12.21431    2.03245
       O   -16.14373   12.48009    1.90134
      H1   -16.04709   13.18157    1.27351
       H   -16.69225   12.00384   -1.98552
       O   -15.98213   11.38096   -2.12205
      H1   -15.68091   11.34448   -3.07379
       H   -19.29496    4.31055    9.59294
       O   -19.35954    4.74215   10.44178
      H1   -18.88895    4.08561   10.95622
       H   -17.66813    9.20392   -5.94227
       O   -17.73197    9.76093   -5.15099
      H1   -17.64575    9.19060   -4.37402
       H   -16.10579    6.04710    7.82897
       O   -15.38170    5.36409    7.95221
      H1   -14.84145    5.47625    8.77157
       H   -12.53385   -0.39926    5.52404
       O   -13.43936   -0.40067    5.86317
      H1   -13.89144    0.35281    5.45272
       H   -18.66085   12.46746    4.54428
       O   -18.68849   12.00830    5.39420
      H1   -18.96429   12.62424    6.07469
       H   -16.87246    3.42592    7.56247
       O   -17.18463    2.62296    7.17078
      H1   -17.96190    2.35766    7.61878
       H   -13.58253    7.14446   -3.80717
       O   -14.11174    7.67094   -4.39775
      H1   -13.99967    8.52818   -4.03448
       H   -18.80871    2.96951    3.55083
       O   -18.18971    3.27135    2.87230
      H1   -18.26946    2.79705    2.03678
       H   -19.76133   -1.54819   -0.61515
       O   -19.01872   -1.94758   -0.09093
      H1   -19.15000   -1.62010    0.83153
       H   -12.96676    9.93261   -2.16467
       O   -12.60648    9.85972   -2.99876
      H1   -12.75859   10.73384   -3.43173
       H   -19.89042   12.13186    1.07297
       O   -19.76398   13.03058    0.71810
      H1   -19.16776   13.48108    1.31825
       H   -15.81512    2.14428    4.65018
       O   -16.12531    1.39361    5.10707
      H1   -16.55605    1.71294    5.92405
       H   -20.20588    7.14016    3.54040
       O   -19.59528    7.49163    4.22927
      H1   -18.74139    7.49612    3.67047
       H   -11.98975    0.47552    2.41673
       O   -11.44300    1.30165    2.43411
      H1   -10.85653    1.05868    1.69604
       H   -13.66976   -0.99432    3.64388
       O   -13.41377   -0.97456    2.71581
      H1   -14.21349   -0.77895    2.21434
       H   -17.14783   13.52413    2.91998
       O   -18.05014   13.62792    3.29402
      H1   -17.94229   14.40940    3.80561
       H   -14.32098    0.98307   -0.37444
       O   -14.96227    1.34550    0.35652
      H1   -15.52426    0.58632    0.63170
       H   -16.48116    1.08625    8.11515
       O   -16.30104    0.36890    8.72488
      H1   -16.25678   -0.47105    8.24780
       H   -13.51557   12.44088    0.83240
       O   -13.38910   11.74709    1.47388
      H1   -13.69306   11.00792    1.01546
       H   -16.11639    5.22729   -3.76219
       O   -16.54589    5.81718   -4.41709
      H1   -15.89098    6.53780   -4.61637
       H   -17.21920    7.08654   -3.22118
       O   -17.58678    7.93521   -2.90784
      H1   -17.04280    8.22114   -2.13563
       H   -15.61876   12.42616   -4.84416
       O   -15.41824   11.44780   -4.81667
      H1   -16.29395   11.04679   -4.93870
       H   -16.82135    2.84123   -5.76200
       O   -16.05517    2.30187   -5.56050
      H1   -15.31465    2.87410   -5.86811
       H   -12.23704    7.61502    4.11316
       O   -12.64553    6.68733    3.94157
      H1   -13.14190    6.58061    4.76639
       H   -18.00502    6.83423    1.78631
       O   -17.57091    7.56176    2.19651
      H1   -16.65334    7.29610    2.08619
       H   -12.98116    4.11427    1.04808
       O   -13.85388    3.75924    0.87304
      H1   -13.79399    2.81200    0.89522
       H   -13.29190    9.35511    0.22067
       O   -13.67718    9.87131   -0.47990
      H1   -14.54434    9.50428   -0.42190
       H   -11.50966    8.84999    1.82068
       O   -12.20106    8.31723    1.38658
      H1   -11.75694    7.96526    0.65106
       H   -17.68829    5.24640   -0.45751
       O   -17.12360    5.33158   -1.24790
      H1   -17.68076    5.88255   -1.81831
       H   -17.42165   10.79320    1.69620
       O   -18.00571   10.13398    1.30017
      H1   -17.89162    9.28126    1.73224
       H   -18.50118   12.80733   -2.45704
       O   -17.85818   13.42924   -2.82005
      H1   -18.17823   14.23158   -2.33736
       H   -18.93856    3.43154   -3.97493
       O   -18.95050    3.02651   -3.07089
      H1   -18.01969    2.66466   -2.96149
       H   -11.63082    4.97902    2.65424
       O   -11.46612    4.22371    2.06321
      H1   -11.78450    3.44049    2.56522
       H   -16.47007   -0.48313    5.06612
       O   -16.71599   -1.40669    5.13026
      H1   -16.01987   -1.83669    4.62829
       H   -16.35111    3.64554    3.25648
       O   -15.39016    3.62168    3.54866
      H1   -14.89752    3.71295    2.72938
       H   -16.98370   -1.09069    2.19796
       O   -16.13591   -0.96394    1.76515
      H1   -16.15085   -1.30387    0.84117
       H   -16.78508    7.96132    8.10337
       O   -17.10990    7.32195    7.41889
      H1   -18.03832    7.55929    7.37189
       H   -13.18912    1.83733    7.26112
       O   -12.55406    2.38264    6.81482
      H1   -13.15676    3.05075    6.42476
       H   -13.17035    5.58690   -1.61970
       O   -12.36982    5.27136   -2.14338
      H1   -12.21807    4.38240   -1.75188
       H   -12.82996    3.07234   -5.77784
       O   -13.10745    3.24203   -4.85949
      H1   -13.74508    3.92480   -4.94992
       H   -15.68566   -2.11785   -1.48932
       O   -16.11116   -1.94805   -0.63869
      H1   -17.05864   -2.03480   -0.78650
       H   -15.49922   12.13890    5.60422
       O   -16.15615   12.80273    5.68361
      H1   -17.04630   12.43550    5.43971
       H   -13.80135    6.93370    2.27753
       O   -14.66027    6.94546    1.88112
      H1   -14.55207    6.58585    1.03236
       H   -14.69220    4.56276    6.48987
       O   -14.10322    4.38917    5.71588
      H1   -14.70049    4.21367    4.96816
       H   -12.27822    9.65176    5.09504
       O   -11.51694    9.05315    4.89906
      H1   -11.11519    9.33459    4.07030
       H   -18.25333    4.77027   -5.37700
       O   -18.50256    3.89983   -5.67206
      H1   -19.30638    3.88355   -6.18148
       H   -12.26953    1.38427   -1.54223
       O   -13.03001    0.77752   -1.54481
      H1   -12.73102   -0.08650   -1.55200
       H   -14.40447    2.56636   -2.18568
       O   -14.96584    2.95001   -2.84752
      H1   -14.75267    2.50575   -3.67067
       H   -17.52321    3.44069   -0.41860
       O   -17.56759    2.66037    0.15421
      H1   -16.69569    2.26701   -0.01719
       H   -18.36636   10.46026   -1.17253
       O   -18.92087   11.15167   -1.47808
      H1   -18.98446   11.86598   -0.83525
       H   -16.46118    0.85766   -1.88176
       O   -16.94153    1.27639   -2.61707
      H1   -16.38578    1.99394   -2.87309
       H   -19.70961    5.43192    0.87942
       O   -18.76029    5.35934    1.05411
      H1   -18.75721    4.67004    1.74150
       H   -11.40292    6.38243   -1.22111
       O   -10.83134    7.08431   -0.83296
      H1   -10.00204    6.60182   -0.44055
       H   -16.90492    9.49710   -0.02371
       O   -16.38757    9.13464   -0.75301
      H1   -16.20811    9.89364   -1.39371
       H   -14.38675    4.85722   -0.14376
       O   -14.61676    5.66559   -0.63407
      H1   -15.44733    5.46936   -1.09263
       H   -14.61637    6.86672    6.68200
       O   -14.17760    7.64247    6.33466
      H1   -14.90931    8.21456    6.23586
       H   -10.21669    4.51057    0.49630
       O    -9.41729    4.89970    0.00790
      H1    -9.48724    4.84382   -0.95439

