180
frame 144 | Written by MDAnalysis XYZWriter (release 2.4.3)
       H    16.07205    9.45473   -7.20982
       O    16.15130   10.44209   -7.02099
      H1    15.21700   10.67295   -7.20921
       H    15.81075   17.46706   -3.05146
       O    15.85301   16.99513   -2.20303
      H1    16.01898   16.07099   -2.44481
       H    11.26592   11.36769    2.26714
       O    10.45439   11.06130    1.73810
      H1    10.56764   11.45607    0.83527
       H    20.25402   12.33006    0.19918
       O    19.41684   12.06038    0.57387
      H1    18.67934   12.22167   -0.04504
       H    16.78320    6.20978    5.15305
       O    16.23451    5.40535    5.34136
      H1    15.50972    5.39424    4.70717
       H    10.31640    7.27790   -0.67692
       O    11.19688    7.06608   -0.96555
      H1    11.40982    6.18435   -0.70910
       H    11.63646    9.84887   -2.16093
       O    11.62036   10.81671   -2.34852
      H1    12.48943   11.04536   -2.10623
       H    15.90434    9.92344   -5.03833
       O    15.53706   10.04407   -4.17013
      H1    15.85093    9.21430   -3.77228
       H    14.92188    2.42486   -7.26876
       O    15.92408    2.40549   -7.08012
      H1    16.02888    3.22283   -6.59162
       H    14.85196    2.56293    2.45471
       O    14.59795    2.94371    1.59502
      H1    14.13538    2.18423    1.21069
       H    10.31791    5.11093   -3.98734
       O    10.94266    5.83335   -4.03606
      H1    11.34454    5.67495   -4.90692
       H    17.07197    4.40906    4.19289
       O    17.57287    3.75452    3.71588
      H1    17.12162    2.91651    3.79819
       H    16.67206   13.97528   -6.61718
       O    16.69492   14.60961   -7.37062
      H1    16.08998   14.22781   -8.03651
       H    16.67605    6.70381   -4.28793
       O    17.33394    7.04045   -4.91477
      H1    18.09180    6.45403   -4.75772
       H    16.87317    0.46133   -4.04074
       O    17.29268    0.92797   -3.28231
      H1    16.53859    1.16368   -2.80689
       H    15.99936   11.63261    5.19926
       O    15.74996   12.43178    4.77494
      H1    16.56875   12.93281    4.75796
       H    12.91348    6.21234    3.30207
       O    12.24826    6.89258    3.38979
      H1    12.55630    7.62763    2.72318
       H    13.25335    1.70769   -1.08890
       O    12.59327    1.65945   -0.40525
      H1    11.77531    1.83365   -0.86150
       H    12.88230    8.79207   -7.82772
       O    13.51526    8.59365   -7.12838
      H1    13.07534    8.94847   -6.32398
       H    17.44880   14.12532   -3.32461
       O    17.28483   14.54185   -2.44607
      H1    18.24741   14.67564   -2.25692
       H    19.27697    0.64802   -1.14512
       O    19.00519    1.51674   -0.72412
      H1    18.97071    2.05906   -1.56290
       H    13.91512    6.98026   -7.56864
       O    14.01876    6.04392   -7.65639
      H1    14.17692    5.74499   -8.62668
       H    19.12414   15.28694   -6.73916
       O    19.18646   14.72586   -5.94034
      H1    19.77467   14.04820   -6.35005
       H    13.03138    2.42642   -4.51138
       O    13.32300    3.33793   -4.22742
      H1    14.20897    3.48419   -4.70536
       H    10.41708   11.30237   -1.23294
       O     9.78726   11.86675   -0.80373
      H1    10.31420   12.69862   -0.71116
       H    10.67445   11.51423   -4.48131
       O    10.42013   11.49795   -5.42669
      H1     9.92019   12.30503   -5.50682
       H    17.09473    8.28891   -1.00642
       O    16.72772    8.50769   -1.89661
      H1    17.22569    9.29521   -2.09166
       H    16.33275    4.81625    0.53356
       O    17.14085    5.16536    1.05203
      H1    17.00757    4.73486    1.92346
       H    17.81436    9.30662   -4.85601
       O    18.33752   10.13445   -5.02577
      H1    19.16998    9.75376   -5.38528
       H    18.54070    2.02613   -4.17474
       O    19.18362    2.55613   -4.67023
      H1    19.10456    2.25299   -5.54521
       H    15.76135    4.92062   -2.02045
       O    15.89492    4.18295   -1.37341
      H1    16.78861    3.86381   -1.55582
       H    12.09435    4.33409    0.09694
       O    11.72240    4.64584    0.92021
      H1    11.29429    3.90240    1.31868
       H    10.49966    4.01847   -1.83705
       O     9.78436    3.45702   -1.46830
      H1     8.96163    3.86613   -1.76260
       H    11.74083    8.07344    0.61524
       O    12.18719    8.68630    1.24691
      H1    11.56223    9.40918    1.34130
       H    14.52307    6.86310   -3.00169
       O    15.45174    6.49731   -3.14368
      H1    15.86400    7.27293   -2.78815
       H    15.39054   11.11979    1.95862
       O    15.06066   11.93742    2.22463
      H1    15.55276   12.00413    3.02589
       H    18.71280    7.44935    4.75510
       O    17.81709    7.83209    4.74998
      H1    17.73809    8.27403    3.85050
       H    14.51160   12.88514   -2.57471
       O    14.41028   12.26290   -1.83883
      H1    14.45093   12.88699   -1.09952
       H    13.72086   14.27690   -4.98275
       O    13.43714   15.20696   -4.74003
      H1    12.87478   15.19389   -3.96664
       H    15.98180    9.50034    3.82710
       O    16.32050    9.53240    2.90986
      H1    17.12688   10.12595    2.96515
       H    17.04733    7.04130    0.96480
       O    17.39358    7.99601    0.78930
      H1    16.74334    8.42500    1.39562
       H    13.15042    4.55862    4.29432
       O    13.90554    4.87012    3.79695
      H1    13.81297    4.41150    2.94360
       H    14.33557    2.32484   -2.88928
       O    14.67727    1.85555   -2.12993
      H1    15.06680    2.62339   -1.64810
       H    19.18223   11.37996    2.19988
       O    18.81334   11.02287    3.03778
      H1    18.79114   11.81245    3.59196
       H    17.10829   13.09386   -1.30482
       O    17.12671   12.21261   -0.93281
      H1    16.20432   11.89328   -1.06584
       H    12.35014    7.69804   -2.37593
       O    13.04643    8.12902   -2.89729
      H1    12.62939    8.47644   -3.70972
       H    17.42128    1.57445    0.21003
       O    16.80868    1.12789    0.80656
      H1    16.13548    1.75841    0.84007
       H    17.94006    6.79542   -7.55128
       O    17.59540    7.48545   -8.14265
      H1    18.40201    7.76552   -8.60512
       H    13.67595   11.95283    3.03976
       O    12.70918   12.20442    3.16793
      H1    12.49229   11.73439    4.00409
       H    13.54956   13.82372    0.53941
       O    14.33320   14.08239   -0.00907
      H1    15.04802   13.85483    0.62011
       H    19.31273   10.34949   -8.91669
       O    18.76540   11.17425   -8.84420
      H1    18.15638   10.79995   -8.22666
       H    18.40193   10.69172   -3.28780
       O    18.52886   10.43929   -2.38094
      H1    17.94907   11.03615   -1.92257
       H    11.22490    8.57944   -5.50995
       O    11.90728    9.09157   -5.12081
      H1    11.49814    9.93609   -4.86057
       H    17.33818   11.91606   -5.38562
       O    17.15718   12.87368   -5.14247
      H1    18.04604   13.28450   -5.37499
       H    15.50106   12.83078   -4.59839
       O    14.56760   12.81158   -4.42179
      H1    14.42493   11.91582   -4.05933
       H    18.95142    4.09758   -3.02868
       O    18.72385    4.05252   -2.06407
      H1    19.62010    4.10490   -1.71297
       H    11.13981    4.58526   -7.19101
       O    11.59166    5.28803   -6.62475
      H1    12.46470    5.59163   -7.01064
       H    12.15705    5.39151   -2.43201
       O    12.38359    4.55024   -1.94301
      H1    12.87849    4.13182   -2.62703
       H    18.32355    4.25066   -7.44151
       O    18.98142    5.05524   -7.27225
      H1    19.76923    4.81889   -7.79000
       H    15.22974    5.50090   -6.32152
       O    15.79307    4.78173   -5.95126
      H1    16.48748    5.32999   -5.59087

