180
frame 12 | Written by MDAnalysis XYZWriter (release 2.4.3)
       H    14.43987   -7.40385   19.59923
       O    14.60036   -6.56244   19.10902
      H1    13.74704   -6.11901   19.23978
       H     5.18716    0.44609   10.08769
       O     5.55330   -0.37429   10.47130
      H1     6.11960   -0.10758   11.21832
       H    13.29954   -0.24872   18.64948
       O    13.87797   -0.44238   17.91912
      H1    14.75628   -0.65317   18.36329
       H     9.49678   -1.49134   15.19499
       O    10.39555   -1.42934   14.83600
      H1    10.55469   -0.45571   14.82435
       H    14.01438    1.05731   12.76602
       O    13.40016    1.24226   12.05652
      H1    13.34853    0.37071   11.56462
       H     9.82506    0.87944   11.26080
       O     9.63411    1.68279   11.76547
      H1    10.41944    1.75656   12.37135
       H     2.28914   -3.86062   14.58044
       O     2.90065   -4.31920   15.19680
      H1     2.46564   -3.94837   16.00932
       H    12.07273   -1.69821   15.82541
       O    12.92215   -2.14478   16.04302
      H1    13.21282   -1.51431   16.73163
       H    10.41892   -4.14107   13.91177
       O     9.85037   -4.71704   14.41016
      H1    10.00241   -4.53361   15.38398
       H    11.11407   -6.10359   14.13334
       O    11.97038   -6.50732   13.82505
      H1    12.32099   -6.91735   14.60044
       H     2.77981   -2.28060   18.15248
       O     2.49634   -3.13492   17.78126
      H1     3.30698   -3.70187   18.00025
       H     7.56231   -1.30615   10.86623
       O     8.18352   -1.95844   10.47628
      H1     8.16686   -2.57655   11.23907
       H     8.43420   -2.61740   19.08455
       O     8.77552   -3.52896   19.18892
      H1     9.22405   -3.71077   18.32446
       H     8.51217   -3.72963   13.15509
       O     7.66471   -3.42778   12.75068
      H1     7.08403   -4.13228   13.01704
       H     4.73733   -6.33999   15.80397
       O     5.16043   -6.88238   16.46972
      H1     4.61961   -7.68575   16.36791
       H     8.15831    0.43492   12.35414
       O     7.32203   -0.01836   12.53293
      H1     6.70753    0.76276   12.53034
       H     4.55826   -8.73184   11.02695
       O     4.93450   -9.10345   11.85491
      H1     5.18030   -8.34899   12.43672
       H     6.84349   -8.55514   17.58900
       O     7.34678   -9.26417   17.10224
      H1     7.18967  -10.00201   17.68806
       H     9.06184   -8.68818   16.81196
       O     9.89616   -8.23000   16.93575
      H1     9.76957   -7.63567   17.65137
       H     7.97775   -4.53747   15.50792
       O     7.70838   -4.08617   16.36077
      H1     7.64865   -4.87857   16.89986
       H    12.79025   -2.33903   12.46370
       O    13.42579   -1.70304   12.07461
      H1    13.51698   -1.16425   12.87290
       H    10.58221   -5.57135   10.61010
       O     9.84425   -6.11923   10.94584
      H1    10.20758   -6.83088   11.41322
       H    10.90564   -2.80465    8.79017
       O    10.84573   -3.58049    9.37897
      H1     9.92971   -3.85081    9.09743
       H    14.05794   -8.00146   12.84811
       O    13.22480   -8.44199   12.67770
      H1    12.60804   -7.74980   13.01693
       H     7.64524  -10.79537   12.69763
       O     7.46145   -9.98440   12.25752
      H1     6.52803   -9.90736   12.17350
       H     9.60176  -11.58528   16.70656
       O     9.09577  -12.16815   16.07824
      H1     8.21991  -12.30081   16.57274
       H    13.21712   -3.42384   14.68607
       O    13.73656   -3.96145   14.03068
      H1    13.09056   -4.45291   13.53175
       H    14.28458   -1.39929   14.45790
       O    14.81797   -0.67009   14.06110
      H1    14.66765    0.08060   14.61572
       H    13.94785    2.38420   15.74151
       O    13.53068    1.52897   15.52122
      H1    13.44055    1.13989   16.41561
       H     6.11280    0.25121   16.94933
       O     5.48765    0.89201   17.28082
      H1     5.20432    0.42876   18.10956
       H    11.15552   -3.14381   16.88993
       O    10.66097   -3.95716   17.06023
      H1    11.29320   -4.35257   17.63709
       H    13.57765   -7.75306    9.61798
       O    14.09511   -8.45288   10.02523
      H1    13.72899   -8.50718   10.94621
       H    11.33888   -8.32473   16.19320
       O    12.25612   -8.40318   15.96992
      H1    12.22159   -9.23481   15.41607
       H    16.31668   -6.55362   16.54682
       O    16.63208   -7.44204   16.26182
      H1    16.93235   -7.16180   15.31842
       H     2.67553   -1.87958   14.23816
       O     3.33687   -1.29850   14.57895
      H1     3.96103   -1.89407   15.00896
       H     9.21294    3.64340   14.52708
       O     9.00752    2.86415   15.11591
      H1     9.29197    3.18666   15.95292
       H     8.14641   -5.95215    8.83592
       O     7.95189   -6.79905    9.22814
      H1     8.70277   -6.84447    9.86575
       H    11.39590  -10.02545   12.38526
       O    11.04701  -10.05249   11.50447
      H1    10.63164  -10.96587   11.49880
       H    12.53742   -6.02578    8.41298
       O    13.26124   -6.00409    9.04074
      H1    13.22087   -5.19156    9.51593
       H    15.69724   -4.33215   17.41063
       O    15.92114   -4.61516   16.52835
      H1    15.06064   -4.49548   16.07192
       H    10.48137    1.72098   14.71622
       O    11.11711    1.14327   14.19308
      H1    11.99331    1.56610   14.42788
       H     6.24902   -5.44438   19.18001
       O     7.12382   -5.50387   18.79117
      H1     7.40406   -4.60177   19.06237
       H     7.75750   -4.12513    7.81531
       O     8.61057   -4.50078    8.14938
      H1     8.98337   -4.78636    7.33553
       H     7.49841   -0.20453   14.27268
       O     7.36985   -0.37644   15.25891
      H1     6.61210   -1.00172   15.32024
       H     4.71847   -3.12690   16.15879
       O     5.30243   -2.51935   16.57857
      H1     6.13108   -2.98346   16.47428
       H    12.72270   -9.17006   17.51619
       O    12.96452   -9.92388   18.11736
      H1    13.17890  -10.42705   17.29250
       H    15.21918   -5.46050   13.69352
       O    15.39237   -6.39640   13.67434
      H1    15.13327   -6.91080   14.44994
       H    11.41363  -10.60496   18.16326
       O    10.54887  -11.03827   18.06072
      H1    10.73008  -11.84754   18.49772
       H     6.34202   -6.73448   13.99749
       O     5.91861   -5.93417   13.60848
      H1     6.12608   -5.95387   12.67268
       H    13.04729  -10.66693   14.03213
       O    12.14329  -10.70450   14.35612
      H1    11.70341  -11.50745   14.11786
       H    17.35701   -2.11613   13.16913
       O    16.97657   -1.38879   12.64510
      H1    16.10020   -1.29607   13.04750
       H     3.67889   -5.77477   18.74112
       O     4.22938   -5.11960   18.30319
      H1     4.62059   -5.71221   17.63986
       H     9.74457   -1.02340   10.28567
       O    10.58669   -0.53226   10.38365
      H1    10.94451   -0.22493    9.56471
       H     6.39367   -2.03624   19.91000
       O     5.91545   -2.82804   19.67615
      H1     5.64157   -2.70583   18.74389
       H     2.89710   -6.33440   14.09436
       O     3.49083   -6.86434   13.55519
      H1     4.27690   -6.25886   13.58165
       H    10.68004   -2.67432   12.79141
       O    11.35108   -3.35688   12.49059
      H1    11.36719   -3.28670   11.49746
       H     6.26912   -4.04267    9.90046
       O     6.28587   -3.42942    9.12923
      H1     7.05077   -2.86018    9.43582
       H     6.69416   -6.33897   10.43258
       O     6.08694   -5.82281   10.98409
      H1     5.22062   -6.04026   10.49834
       H     7.32955   -8.87350   13.72445
       O     6.67725   -8.39298   14.27796
      H1     6.76196   -8.90759   15.12120
       H    15.17998   -3.92359   10.36225
       O    14.25758   -3.73028   10.23333
      H1    14.19175   -2.99195   10.86097

