180
frame 3 | Written by MDAnalysis XYZWriter (release 2.4.3)
       H    -3.47021   -6.05969    4.49058
       O    -4.37366   -6.41257    4.28787
      H1    -4.75053   -6.29012    5.18794
       H   -12.75553   -7.56480   -1.57958
       O   -12.44113   -8.46569   -1.35344
      H1   -11.52569   -8.40783   -1.59972
       H    -8.37850  -11.53136    8.14068
       O    -8.07607  -12.16004    8.85047
      H1    -8.57092  -11.85577    9.61503
       H   -16.77919   -6.56940    0.76367
       O   -16.29836   -6.11447    1.44228
      H1   -15.80694   -6.88328    1.84198
       H   -10.39777  -10.43651   11.50074
       O   -10.20061  -10.72110   10.62969
      H1   -10.91950  -11.14799   10.21712
       H   -14.19332   -9.56478   10.72682
       O   -13.24190   -9.50700   10.54955
      H1   -13.04562   -8.55961   10.48640
       H    -3.64814  -11.54565    7.48475
       O    -3.52601  -11.06311    6.59872
      H1    -2.84187  -10.37999    6.79356
       H    -9.59747   -1.59995    7.47466
       O   -10.48211   -1.59640    7.13294
      H1   -10.46131   -2.58146    6.79895
       H    -6.04649  -11.96333    1.04274
       O    -5.60086  -11.75769    0.20546
      H1    -4.86682  -11.23140    0.60512
       H    -7.56369  -12.72139    2.16855
       O    -7.81557  -13.39547    1.49072
      H1    -7.24312  -14.17309    1.71260
       H    -8.63971   -7.59691   12.50893
       O    -7.89787   -7.69632   11.88236
      H1    -8.35251   -7.45442   11.04693
       H    -8.12047   -8.43410    2.56585
       O    -8.57063   -9.14500    2.94746
      H1    -8.85772   -8.68269    3.71996
       H   -10.94025  -14.49452    0.96289
       O   -11.34135  -13.64486    1.28656
      H1   -10.67757  -13.27551    1.84307
       H    -7.47208  -10.46828    3.00527
       O    -6.96827  -11.26767    3.26445
      H1    -6.78937  -11.06071    4.15717
       H    -9.76932  -15.08634    3.21740
       O    -9.00887  -14.65419    3.65667
      H1    -8.60764  -14.25631    2.86806
       H   -12.07749  -14.37353    6.56889
       O   -12.35521  -15.20105    7.03208
      H1   -13.25762  -14.96720    7.31587
       H   -12.77413   -4.45838    0.03213
       O   -11.87871   -4.57343   -0.29366
      H1   -11.54028   -5.07278    0.48102
       H   -13.10131   -6.95547    4.53289
       O   -13.27796   -6.13763    3.98229
      H1   -14.24367   -6.07367    4.14726
       H    -6.82727   -7.85505    7.00214
       O    -7.75764   -7.66408    6.79571
      H1    -8.24568   -7.53340    7.60627
       H   -12.21152   -6.75553    7.54689
       O   -11.26933   -6.93888    7.53428
      H1   -10.90536   -6.32382    6.85493
       H    -7.28621   -6.59014   -0.72994
       O    -8.17325   -6.77243   -0.34335
      H1    -8.18615   -6.00798    0.29436
       H    -9.24218   -7.85909    5.97637
       O    -9.75841   -7.86075    5.12822
      H1   -10.68082   -8.03439    5.45047
       H    -4.48489   -9.04987    8.48063
       O    -5.47517   -8.92306    8.39600
      H1    -5.76089   -9.68822    8.86181
       H   -12.92038   -9.62451   -0.33275
       O   -13.27434  -10.34707    0.21772
      H1   -13.04038  -11.06628   -0.40523
       H    -8.83246   -2.58422    3.43626
       O    -8.23800   -1.88048    3.20481
      H1    -7.36158   -2.29368    3.17376
       H   -12.79994   -5.65159   10.39511
       O   -13.19483   -6.52523   10.51190
      H1   -13.74309   -6.71664    9.74547
       H   -15.58745   -8.60818    2.97550
       O   -15.07700   -8.66477    2.14000
      H1   -15.22828   -9.65749    2.06338
       H    -5.06525   -3.37752    2.34840
       O    -5.16379   -4.32149    2.02683
      H1    -4.64397   -4.77061    2.73013
       H    -7.18422   -2.71219    0.62975
       O    -6.61212   -1.97119    0.47391
      H1    -6.26072   -2.34532   -0.34591
       H   -12.22632   -1.13831    4.40322
       O   -12.48069   -0.83280    5.29112
      H1   -11.78970   -1.18617    5.85547
       H    -7.25143  -13.47364    7.66740
       O    -6.62273  -14.17733    7.38824
      H1    -7.24350  -14.92125    7.27279
       H   -15.60990   -9.98809    7.41228
       O   -14.73496   -9.65998    7.62650
      H1   -14.68467   -9.72164    8.53853
       H   -16.67691   -5.95747    4.73103
       O   -15.83007   -5.44387    4.67651
      H1   -15.89629   -4.95921    5.50474
       H    -9.40248   -8.36278   -1.60653
       O    -9.86689   -9.01634   -2.16970
      H1   -10.02641   -8.55322   -3.04672
       H    -9.90400  -11.15059    2.96933
       O   -10.45967  -11.85210    3.27492
      H1    -9.84915  -12.35105    3.90268
       H   -10.16026   -4.58601   -1.72047
       O    -9.43244   -5.04347   -2.13001
      H1    -9.05485   -5.49079   -1.36026
       H   -14.78833  -10.93952    0.96366
       O   -15.53062  -11.10876    1.58610
      H1   -16.29470  -11.05913    0.93165
       H   -10.39721  -11.88030   -0.58299
       O   -10.58430  -11.95575   -1.52285
      H1   -10.91685  -11.06854   -1.69627
       H   -14.73437   -7.63659    7.64812
       O   -14.03017   -7.03903    7.82153
      H1   -14.30098   -6.25664    7.27454
       H    -6.88295   -4.70158    1.68235
       O    -7.79954   -4.64222    1.30843
      H1    -8.35439   -4.80041    2.03702
       H   -12.34756  -12.05908    6.07739
       O   -12.50962  -12.81278    5.47502
      H1   -11.90243  -12.54443    4.70461
       H    -8.50708  -12.64049    5.87102
       O    -9.30373  -12.87067    5.38872
      H1    -9.11814  -13.77010    5.04523
       H   -10.49426   -8.90039    2.19430
       O   -11.39124   -8.62842    2.03719
      H1   -11.61526   -8.98710    1.16402
       H   -13.75514   -4.13388    5.95890
       O   -13.22534   -4.86515    6.20590
      H1   -13.10054   -5.23372    5.32989
       H    -7.52282   -8.36769    0.11015
       O    -7.59777   -9.34007    0.11793
      H1    -6.68902   -9.57028    0.21138
       H    -9.49060   -8.43088    9.72377
       O    -9.30499   -7.49742    9.43585
      H1   -10.14320   -7.24586    8.98027
       H   -12.17807   -2.44251    2.80579
       O   -11.46697   -1.71601    2.75370
      H1   -11.86024   -1.14070    2.10445
       H    -9.65179   -4.56690    5.53215
       O    -9.95290   -4.32206    6.43932
      H1    -9.19649   -4.39018    6.96884
       H   -11.44952   -6.92353    1.72747
       O   -11.59334   -5.99672    1.92520
      H1   -12.25676   -6.12577    2.63105
       H    -7.54831   -3.17368    8.14627
       O    -7.64503   -4.15221    8.02361
      H1    -7.32803   -4.49791    8.89859
       H   -16.08557  -11.18177    3.40577
       O   -15.83988  -10.98522    4.37679
      H1   -14.89932  -11.06601    4.21365
       H    -5.30788   -5.81387    7.75497
       O    -5.45293   -5.42981    6.88626
      H1    -6.23684   -4.90891    7.01452
       H    -5.45946  -10.53823    5.58754
       O    -6.35218  -10.46900    5.95610
      H1    -6.14423   -9.88431    6.70207
       H   -12.69690   -8.85793    6.11728
       O   -12.59591   -8.42163    5.25087
      H1   -12.49998   -9.18713    4.62963
       H    -4.03553   -3.94467    7.02466
       O    -3.13017   -3.73811    7.29254
      H1    -2.91209   -2.90837    6.74723
       H   -12.25197  -11.02297    3.14872
       O   -13.03214  -10.45897    3.28949
      H1   -13.09284   -9.84937    2.53006
       H   -14.20328   -2.90437    4.01912
       O   -13.82391   -3.07471    3.13072
      H1   -14.15320   -3.89426    2.86652
       H   -13.21950  -10.57736    7.27868
       O   -12.34574  -10.92824    7.37664
      H1   -11.80513  -10.41167    7.99976
       H    -9.97821   -5.59423    3.22572
       O    -9.22246   -5.41848    3.79505
      H1    -9.20558   -6.32449    4.20053
       H    -4.97132   -7.29594    9.37039
       O    -5.28711   -6.42489    9.69844
      H1    -4.86789   -6.24947   10.52472

