180
frame 5 | Written by MDAnalysis XYZWriter (release 2.4.3)
       H     8.27747  -15.61050    5.09746
       O     8.68540  -14.93462    5.74205
      H1     9.55016  -14.72255    5.20758
       H     8.26273   -9.16838   -2.41030
       O     8.10116   -8.58725   -1.61614
      H1     7.40823   -9.00861   -1.03589
       H     2.81453  -17.68382   -2.09295
       O     3.52542  -18.25617   -1.78116
      H1     3.55028  -18.09756   -0.86237
       H     3.96580  -14.45706   -2.53265
       O     4.51778  -13.60805   -2.64704
      H1     5.41895  -13.97827   -2.70302
       H     7.52425  -13.36129    2.43095
       O     8.33388  -12.90971    2.20972
      H1     8.28801  -12.26135    2.92041
       H    -1.99961  -13.84560    1.77627
       O    -2.48301  -13.00548    1.64754
      H1    -3.13136  -13.03513    2.35265
       H     0.72320  -13.03807   -4.84394
       O     1.40716  -12.99516   -4.11161
      H1     0.95456  -13.57174   -3.47528
       H     2.85209  -13.75826    7.78484
       O     2.20598  -13.20353    7.39129
      H1     2.29087  -13.34240    6.43933
       H     8.52791  -10.38247    4.46311
       O     7.85920  -11.10707    4.30907
      H1     7.21187  -10.60135    3.83570
       H    -0.22062   -8.96785    5.53918
       O    -0.07903   -8.86486    4.56303
      H1    -0.84841   -8.36150    4.19178
       H     6.96718  -10.73254    8.04501
       O     5.97560  -10.82015    8.08829
      H1     5.72459  -11.64925    7.71569
       H    -1.75900  -11.41818   -2.48519
       O    -1.86766  -11.06377   -3.38458
      H1    -2.22978  -10.20229   -3.12606
       H     1.47647  -13.41034   -0.68521
       O     0.87356  -13.78050   -0.05486
      H1     0.77948  -13.10957    0.65250
       H    -1.80971  -11.23728    4.17545
       O    -1.08348  -11.16425    3.56477
      H1    -0.70927  -10.30198    3.80309
       H     5.36102   -9.57328    6.53631
       O     4.81907   -9.02264    5.93858
      H1     4.81761   -9.55149    5.11419
       H    10.64745  -16.90948    0.13938
       O    10.53204  -16.59237    1.05140
      H1    10.47986  -15.63410    0.81583
       H     2.80618   -8.00055    7.84899
       O     2.24817   -7.69175    7.10737
      H1     2.67147   -7.74254    6.24203
       H     7.51119  -16.72918   -3.07391
       O     8.00560  -16.24117   -3.83068
      H1     7.31206  -16.00436   -4.47654
       H     7.06130   -6.36958   -1.07776
       O     7.09863   -5.70553   -0.42298
      H1     6.38168   -5.90679    0.21270
       H     2.92321   -8.43835    1.19737
       O     3.32180   -8.20112    2.08904
      H1     2.55226   -7.80254    2.54315
       H     0.84662  -17.39099   -3.43535
       O     1.45338  -16.67345   -3.21460
      H1     1.83746  -16.52448   -4.10248
       H     4.53700  -14.75193    0.67189
       O     4.23148  -15.67808    0.60386
      H1     3.27424  -15.75227    0.79600
       H     5.52288   -8.73282   -5.91023
       O     4.81295   -9.19047   -5.44105
      H1     4.99136   -8.82370   -4.53008
       H     9.11192  -17.79828    1.18222
       O     8.24064  -18.24353    1.04000
      H1     7.92525  -17.79598    0.23562
       H     6.53841  -18.44345   -2.05717
       O     6.36290  -17.52760   -1.98870
      H1     5.40496  -17.48549   -2.08355
       H     3.16685  -17.27749    5.07531
       O     2.76830  -16.48484    4.69274
      H1     3.28444  -15.78738    5.09048
       H     4.40226   -6.59634    1.82713
       O     5.16137   -6.06100    1.58389
      H1     5.10431   -5.25873    2.13905
       H     4.92991  -12.16579    0.35678
       O     4.25133  -12.46959    0.96145
      H1     4.66588  -12.37654    1.82697
       H    11.50916  -11.06866    2.68912
       O    11.92887  -11.01137    1.83901
      H1    11.26882  -10.50305    1.33668
       H     0.28483   -9.19235   -0.33938
       O     0.55071   -9.23819   -1.26850
      H1     1.10513  -10.04684   -1.24670
       H     4.10448   -6.53252   -1.74831
       O     3.81288   -7.13563   -1.03987
      H1     4.02387   -6.66624   -0.26178
       H     7.84254  -13.37492    6.31415
       O     7.13570  -12.70958    6.34175
      H1     7.41787  -12.14501    5.60486
       H    -2.00621  -12.59587    0.09454
       O    -1.41812  -12.59939   -0.69893
      H1    -0.70181  -13.22744   -0.48534
       H     4.79193  -16.11953    2.30255
       O     5.06158  -16.04615    3.25473
      H1     4.25578  -16.36959    3.73248
       H     0.84609  -13.81758    3.99412
       O     1.55845  -13.40149    4.43262
      H1     1.38312  -12.46520    4.31819
       H     4.41809   -9.54457    3.05056
       O     5.30644   -9.94132    3.08110
      H1     5.86130   -9.14244    3.11839
       H     3.79331  -10.68953   -5.71459
       O     3.45451  -11.60300   -5.90772
      H1     2.56428  -11.59668   -5.62508
       H     2.89843  -14.70490   -4.66002
       O     3.13862  -15.53704   -5.06044
      H1     2.65630  -15.38776   -5.86835
       H     5.88582  -13.19292    4.16534
       O     5.88232  -13.12622    3.23206
      H1     5.71060  -14.08296    3.02236
       H     9.16937  -11.00661   -3.98856
       O     8.37563  -10.51567   -3.68150
      H1     7.79111  -11.26079   -3.67907
       H    -1.75031  -16.87854   -0.05385
       O    -1.86719  -15.98590    0.35608
      H1    -1.37258  -16.07715    1.18582
       H     8.72379  -12.83226   -2.49003
       O     8.71759  -13.54888   -1.86750
      H1     8.60523  -14.27168   -2.49749
       H     6.83984  -16.68502    3.57805
       O     7.77679  -16.78201    3.74695
      H1     8.10470  -17.04065    2.89608
       H     5.42008   -5.97383    4.77034
       O     5.80574   -6.50534    5.46318
      H1     5.29600   -7.31108    5.59970
       H     4.27771  -16.04308    7.61893
       O     4.08931  -15.20359    7.23687
      H1     5.01033  -14.83450    7.30619
       H    -0.58529  -11.67193    0.36888
       O    -0.08808  -11.19650    1.05014
      H1    -0.52699  -11.41362    1.91536
       H     0.29835  -15.59857   -2.50972
       O    -0.51660  -15.02156   -2.39871
      H1    -0.73313  -15.09644   -1.48756
       H     1.38037   -7.24139    4.55879
       O     2.21906   -6.85671    4.51366
      H1     2.17487   -5.89117    4.64953
       H     9.22665  -10.20743   -0.75977
       O     9.94650  -10.84542   -0.64472
      H1     9.36154  -11.62187   -0.48879
       H     4.70004   -8.20882   -2.17495
       O     4.91779   -8.88171   -2.85757
      H1     4.04950   -9.40806   -2.76920
       H     5.27760   -9.96020    0.11776
       O     5.95275   -9.80128   -0.51921
      H1     5.53612   -9.50686   -1.35048
       H     9.64387  -13.66675    1.29436
       O    10.22868  -13.89798    0.50530
      H1     9.61486  -13.89831   -0.27883
       H     5.13606  -11.89879   -4.16361
       O     6.10919  -11.92317   -4.24340
      H1     6.23263  -12.05087   -5.22082
       H     2.56227  -18.45250    1.95995
       O     2.39503  -17.57088    1.77211
      H1     2.74829  -16.95280    2.42748
       H     3.81527  -11.53488   -2.52292
       O     3.10574  -10.87329   -2.71226
      H1     2.49928  -11.39000   -3.28419
       H     5.61667  -16.58905   -5.90580
       O     5.70073  -15.65301   -5.66670
      H1     4.70767  -15.50624   -5.63252
       H    -0.76240  -16.27368    3.93888
       O    -0.71519  -15.34274    4.12298
      H1    -1.60163  -15.22491    4.53635
       H     6.95273   -7.32875    4.22734
       O     7.03266   -7.88786    3.47148
      H1     6.99500   -7.19491    2.78419
       H     0.04681  -18.41065    3.56914
       O    -0.53228  -17.80258    3.02441
      H1     0.11654  -17.67418    2.30843
       H    -0.51594   -9.46215    1.33042
       O    -0.35179   -8.51078    1.26258
      H1    -0.86487   -8.32556    0.42692

