180
frame 6 | Written by MDAnalysis XYZWriter (release 2.4.3)
       H    -8.26508   -8.39872  -17.38598
       O    -8.61112   -8.86979  -18.16082
      H1    -8.05808   -8.63562  -18.89661
       H   -13.55502  -14.97719  -17.72467
       O   -14.08332  -14.15058  -17.86100
      H1   -14.00330  -13.71345  -17.01395
       H   -10.20489   -1.55675  -10.84389
       O   -10.23353   -1.21769  -11.77505
      H1   -11.10542   -1.47809  -12.08096
       H   -17.85259   -2.88230  -12.18687
       O   -17.69136   -2.20719  -12.88908
      H1   -17.35652   -2.62533  -13.68529
       H    -9.35682   -4.74452  -16.70148
       O    -9.51757   -5.39804  -17.38860
      H1    -9.56294   -5.05704  -18.28590
       H   -16.48179    0.31724  -12.60094
       O   -15.59411    0.70616  -12.64942
      H1   -15.30668    0.46677  -13.51945
       H   -13.72768   -0.01474  -15.94831
       O   -14.63603    0.06781  -16.22361
      H1   -14.86956    0.90538  -15.77314
       H   -16.35529   -5.88609  -13.88635
       O   -16.96555   -5.18773  -14.19215
      H1   -17.81168   -5.57267  -14.31372
       H   -10.58234  -10.79474  -13.97459
       O   -11.10422  -11.25856  -14.58063
      H1   -10.55550  -11.96652  -14.97273
       H   -15.99328   -2.52513  -12.54101
       O   -15.10946   -2.85036  -12.26860
      H1   -15.15726   -3.85198  -12.16827
       H   -11.49177   -5.18480  -11.41166
       O   -12.03003   -5.29994  -10.64170
      H1   -11.97347   -4.45431  -10.16564
       H   -18.79338   -0.68027  -16.56345
       O   -19.19627   -1.37185  -16.05543
      H1   -18.67895   -2.18282  -16.25722
       H   -14.15566  -10.65707  -13.09752
       O   -13.63617   -9.83664  -13.03966
      H1   -14.19787   -9.09781  -13.33915
       H   -14.70571   -0.91952   -9.34681
       O   -14.78583   -1.84975   -9.64334
      H1   -14.81084   -1.87926  -10.62841
       H    -7.33484  -10.74975  -16.56330
       O    -7.23617  -10.80738  -15.62988
      H1    -8.00897  -10.45169  -15.22156
       H   -14.12637  -10.88751  -15.44974
       O   -14.63316  -11.65479  -15.73522
      H1   -15.50759  -11.46158  -16.08175
       H   -16.16187   -7.37027  -16.92205
       O   -17.08579   -7.65213  -16.79495
      H1   -17.21622   -8.42680  -17.40292
       H   -15.88850   -5.12545   -9.15760
       O   -16.37202   -4.29266   -9.10440
      H1   -15.72375   -3.59992   -9.23460
       H   -11.37254   -8.46995  -19.14478
       O   -10.69656   -7.82188  -19.33753
      H1    -9.91257   -8.19951  -18.83294
       H    -9.18694  -13.19446  -15.06095
       O    -9.65199  -12.98916  -15.88601
      H1    -8.91542  -12.61825  -16.44547
       H   -16.05133  -10.06474  -18.11958
       O   -15.11861   -9.78472  -17.94249
      H1   -14.94216  -10.09032  -17.02489
       H   -16.44710  -11.12720   -8.86044
       O   -16.56927  -11.02915   -9.84918
      H1   -15.93850  -10.33401  -10.02332
       H   -14.10315  -12.95831  -14.81776
       O   -14.06390  -13.60443  -14.06238
      H1   -13.19043  -13.49111  -13.65235
       H   -13.69559   -9.42060   -9.41189
       O   -14.22429   -8.63883   -9.44470
      H1   -13.63243   -7.92179   -9.19432
       H   -13.28787   -2.01353  -13.08426
       O   -12.39278   -2.17145  -13.40936
      H1   -12.09901   -1.42783  -13.94482
       H   -11.49306   -7.51473  -16.46283
       O   -11.60679   -6.63108  -16.14927
      H1   -10.89327   -6.07512  -16.54408
       H    -7.36969   -2.51470  -18.47241
       O    -7.31939   -2.20450  -19.41541
      H1    -7.23300   -2.95117  -19.95490
       H   -16.20383   -0.54375  -19.14690
       O   -15.26842   -0.62786  -18.96364
      H1   -15.32015   -0.53578  -18.02644
       H   -11.31934   -8.20870  -10.21102
       O   -11.30220   -8.30533  -11.14789
      H1   -11.88863   -7.55617  -11.46705
       H   -13.26113  -10.35222  -18.65036
       O   -12.36330  -10.03510  -18.75777
      H1   -11.76239  -10.77271  -18.95772
       H   -17.91685  -11.75725  -17.53348
       O   -17.50359  -11.70467  -16.64672
      H1   -17.93288  -10.96271  -16.15753
       H   -15.08159   -7.42637  -14.77822
       O   -15.45566   -7.79394  -14.02334
      H1   -16.07484   -8.44598  -14.41989
       H    -8.62925  -10.04441  -12.29412
       O    -9.39740   -9.75903  -12.79253
      H1   -10.05666   -9.33710  -12.23590
       H   -11.53005   -5.00864  -13.27712
       O   -10.62994   -4.96869  -12.85394
      H1   -10.42622   -5.90276  -12.68534
       H   -16.32758   -4.82312  -18.34135
       O   -15.52989   -4.21500  -18.30401
      H1   -15.28129   -3.93009  -19.17190
       H   -10.23139   -3.05948  -15.86372
       O    -9.63859   -3.58489  -15.36771
      H1   -10.03054   -3.70120  -14.49641
       H   -12.06798   -6.45135   -9.35056
       O   -12.25873   -7.05643   -8.62048
      H1   -11.50626   -7.27309   -8.07016
       H   -19.63243   -7.54707  -13.47961
       O   -19.08411   -6.74858  -13.16700
      H1   -19.04499   -6.84376  -12.22055
       H    -6.74078   -6.81605  -16.76189
       O    -7.48458   -7.12330  -16.25305
      H1    -8.18852   -6.52523  -16.63110
       H    -6.36468   -8.24732  -13.72255
       O    -5.46614   -8.49009  -13.56189
      H1    -4.84896   -7.71086  -13.61729
       H   -14.43852   -5.43429  -16.94290
       O   -14.36549   -6.34158  -16.52719
      H1   -13.38422   -6.55220  -16.39672
       H   -11.12822  -12.60771  -12.93176
       O   -11.53353  -12.97100  -12.16051
      H1   -11.34262  -13.91238  -12.05793
       H   -12.21871   -8.25756  -13.39975
       O   -12.33104   -7.29636  -13.48956
      H1   -12.03576   -7.18044  -14.43835
       H   -16.66032   -3.89461  -15.60672
       O   -16.66125   -2.97841  -15.96706
      H1   -16.14887   -3.13140  -16.78286
       H   -18.43876   -5.09383  -17.90030
       O   -17.83224   -5.45286  -18.50112
      H1   -17.64376   -6.32901  -18.20353
       H   -15.95084   -7.73681  -10.21857
       O   -16.34945   -6.82626  -10.13700
      H1   -16.00210   -6.43494  -10.92784
       H   -19.00476  -12.00702  -13.59102
       O   -18.62372  -11.39764  -12.93390
      H1   -18.03330  -12.03103  -12.41005
       H   -14.83524   -3.11538  -15.97197
       O   -13.91986   -3.36328  -15.67678
      H1   -13.82686   -3.02527  -14.76629
       H   -11.11012   -1.75454  -17.97777
       O   -11.26354   -2.06965  -17.07969
      H1   -12.07309   -2.56386  -17.06511
       H   -18.61140   -8.86282  -19.14524
       O   -17.65135   -9.19835  -19.19650
      H1   -17.31189   -9.02708  -20.06005
       H   -14.06982   -8.21658  -19.05790
       O   -13.92634   -7.62292  -19.80617
      H1   -13.65149   -6.76865  -19.39784
       H    -8.83523   -3.98877  -12.34533
       O    -7.85714   -3.99084  -12.32085
      H1    -7.54968   -4.39108  -13.13646
       H   -17.77875  -10.13422  -14.13920
       O   -17.41423   -9.64493  -14.93303
      H1   -17.76321   -8.76331  -14.99765
       H   -11.53147   -0.72109  -15.96360
       O   -11.79272   -0.06757  -15.31065
      H1   -11.20890    0.66495  -15.43571
       H    -8.05054   -2.87621  -15.73606
       O    -7.14923   -2.78862  -16.26846
      H1    -6.65361   -2.13553  -15.79233
       H    -6.47339   -4.18187  -15.18956
       O    -6.49185   -4.94478  -14.54812
      H1    -6.83579   -5.72190  -14.96086
       H   -18.14978  -11.11279  -19.45719
       O   -18.53692  -11.99517  -19.24446
      H1   -17.92345  -12.63080  -19.67688
       H    -7.32945  -12.69084  -18.20016
       O    -8.12360  -12.13959  -18.12493
      H1    -7.78081  -11.22209  -18.27937
       H   -12.39093   -9.55920  -16.99262
       O   -12.42463   -9.45500  -16.00590
      H1   -11.94265  -10.29799  -15.69364
       H   -14.30173   -6.10510  -12.78077
       O   -14.47392   -5.51263  -12.07678
      H1   -13.65825   -5.37359  -11.56805

