180
frame 6 | Written by MDAnalysis XYZWriter (release 2.4.3)
       H    16.43991   -7.12159  -17.34620
       O    15.53398   -7.02353  -17.68658
      H1    15.23429   -7.84238  -18.08869
       H    12.64514  -10.53616  -14.37049
       O    11.96185  -10.23731  -14.94184
      H1    12.39386  -10.41188  -15.83946
       H    10.10702   -6.40180  -19.16465
       O    10.91953   -6.85944  -18.86747
      H1    10.56186   -7.78522  -18.76210
       H    18.56294   -6.68494  -16.27960
       O    17.69001   -6.26925  -16.09284
      H1    17.77578   -5.36258  -16.45618
       H    17.62530   -6.08016  -14.26795
       O    17.46027   -6.17211  -13.31744
      H1    16.88386   -5.45861  -13.08620
       H     6.87048   -6.32172  -10.71307
       O     7.39430   -5.58091  -11.19364
      H1     7.26230   -5.78520  -12.12809
       H     9.80434   -3.36185  -13.28282
       O     9.13818   -2.71621  -12.96612
      H1     9.16373   -2.09034  -13.74494
       H     7.10224   -9.17861  -17.87071
       O     6.51012   -9.90442  -18.10339
      H1     6.89866  -10.15889  -18.92709
       H    11.29435   -4.46887  -16.49668
       O    11.12207   -4.68349  -15.54154
      H1    10.85125   -5.61306  -15.64082
       H     9.35832   -2.68399  -11.39154
       O     9.50681   -2.16882  -10.52463
      H1     8.84862   -2.61026   -9.97370
       H    13.94932   -6.79830  -10.96251
       O    13.37551   -6.08287  -11.34123
      H1    12.79735   -5.79648  -10.64050
       H    11.34489  -14.42542  -15.22612
       O    12.22070  -14.87399  -15.39333
      H1    12.90351  -14.17602  -15.25848
       H    10.60680  -10.34263   -9.86046
       O    11.14924  -11.05393   -9.55566
      H1    11.37492  -11.37135  -10.41686
       H    12.96749   -4.88912  -12.65128
       O    12.93172   -4.18259  -13.34200
      H1    12.37829   -4.57332  -13.99930
       H     3.53528   -7.07713  -18.00795
       O     4.05906   -7.79199  -17.60719
      H1     4.98513   -7.50505  -17.79672
       H    11.30859   -7.55053  -16.88757
       O    11.38876   -7.41727  -15.89805
      H1    11.50830   -8.35447  -15.65529
       H    10.63657   -1.18676  -16.76841
       O    10.48319   -0.79322  -17.61377
      H1     9.50581   -0.98219  -17.54453
       H    10.25382   -9.90191  -19.59922
       O     9.99970   -9.68769  -18.70284
      H1     9.55614  -10.56878  -18.40212
       H     3.46750   -6.53330  -14.82085
       O     4.26388   -6.99856  -14.94485
      H1     4.04354   -7.37071  -15.80976
       H     8.48498  -10.46626  -13.94829
       O     8.71534   -9.77381  -14.59426
      H1     9.65220   -9.81659  -14.68567
       H    15.36288   -3.47314  -17.03711
       O    15.41535   -3.61173  -17.95976
      H1    15.27933   -4.54859  -18.03413
       H     9.19159   -6.93338  -15.13997
       O     8.37589   -6.58454  -15.53641
      H1     7.91642   -6.26138  -14.79014
       H    14.71291   -3.10109  -14.60244
       O    15.15160   -2.79084  -15.44604
      H1    16.01019   -2.49953  -14.99674
       H     8.63451  -11.08782  -16.44788
       O     8.74977  -11.80119  -17.06586
      H1     7.83330  -12.12573  -17.04415
       H    15.29785  -10.45669  -17.71675
       O    15.30913   -9.87008  -18.52315
      H1    16.17748   -9.47478  -18.54579
       H    14.57100  -12.20698  -13.11976
       O    13.70883  -12.64189  -13.21710
      H1    13.86096  -13.45075  -12.73665
       H    15.45181   -3.42218  -11.91046
       O    15.64260   -3.95243  -12.71339
      H1    14.84445   -4.43185  -12.88700
       H    11.66359   -2.57300  -17.63757
       O    11.62947   -3.45623  -18.01068
      H1    10.88598   -3.32735  -18.62497
       H     9.48216   -3.90449  -15.71243
       O     8.61341   -3.57984  -15.90820
      H1     8.05290   -4.09253  -15.28877
       H    10.51234   -6.02776   -9.32382
       O    10.33432   -6.74290   -8.70350
      H1     9.37196   -6.56831   -8.75535
       H    11.44456   -3.45923   -9.91079
       O    11.43008   -4.35816  -10.27260
      H1    11.01904   -4.28366  -11.16847
       H     9.64925   -7.96669   -9.72354
       O     9.36602   -8.82827  -10.06842
      H1     9.17301   -8.55701  -10.99543
       H     5.33535  -13.67555  -18.83956
       O     5.15090  -12.70187  -18.82794
      H1     5.58834  -12.47496  -18.01513
       H     7.23199   -8.35386  -12.22635
       O     8.15228   -8.15290  -12.46438
      H1     8.26094   -8.46108  -13.34557
       H    15.28711   -8.32782  -14.23520
       O    15.84494   -8.53242  -13.44581
      H1    16.39868   -7.71658  -13.40727
       H    15.18854  -12.68771  -11.20070
       O    15.59567  -13.55238  -11.45314
      H1    16.10029  -13.26377  -12.25403
       H     9.45561  -13.25588  -16.04166
       O     9.70940  -13.60586  -15.14859
      H1     9.36794  -12.94726  -14.54538
       H     6.24533  -11.22441  -16.66704
       O     6.04840  -12.11627  -16.33186
      H1     5.42337  -11.90293  -15.51418
       H    13.04661   -7.01186  -15.40983
       O    13.98570   -7.16825  -15.32172
      H1    14.40342   -6.77107  -16.12436
       H    16.77429  -10.57636  -16.27231
       O    15.99736  -11.17205  -16.13965
      H1    16.41555  -12.07178  -16.28929
       H    12.74013  -11.86057  -17.78655
       O    12.80116  -10.99109  -17.35156
      H1    12.68362  -10.35513  -18.03785
       H     8.96746   -5.44559  -12.06178
       O     9.82656   -5.37227  -12.50630
      H1    10.03167   -6.33500  -12.62007
       H     8.88301  -15.47309  -15.86167
       O     8.10997  -15.95418  -16.24191
      H1     7.56124  -16.16421  -15.46751
       H     7.70061   -5.67742  -19.22350
       O     8.47313   -5.51428  -19.72029
      H1     8.65210   -4.58189  -19.50425
       H    17.20253   -8.69536  -15.07018
       O    17.81778   -9.09335  -15.67007
      H1    18.60677   -9.16542  -15.05631
       H    11.88836   -2.54466  -15.05454
       O    11.86750   -1.69248  -15.54437
      H1    12.00105   -0.93394  -14.95674
       H    18.64280   -8.85045  -17.72592
       O    18.07736   -9.31113  -18.45469
      H1    17.94094   -8.54569  -19.12475
       H     6.26096   -3.82941  -14.22974
       O     6.95956   -4.38440  -13.92994
      H1     7.52137   -3.75945  -13.46150
       H     7.55408  -11.77638  -13.36916
       O     8.43474  -12.07437  -13.02395
      H1     8.26456  -12.19436  -12.03962
       H     6.96790   -6.56195  -16.74312
       O     6.26421   -6.46910  -17.43679
      H1     5.56858   -6.17872  -16.84445
       H    10.43365  -12.20196  -12.26315
       O    11.33247  -11.93603  -12.11707
      H1    11.76615  -12.51929  -12.72579
       H    14.31051  -10.87295  -10.77966
       O    13.77992  -10.34763  -11.43886
      H1    13.05140  -10.92095  -11.62497
       H    14.49161   -2.12385  -19.73598
       O    13.62802   -1.79208  -19.46985
      H1    13.50357   -2.09559  -18.55668
       H     4.94256   -7.73722  -13.31318
       O     5.47581   -8.07968  -12.56660
      H1     5.13592   -8.90043  -12.11462
       H    12.13653  -14.23390  -17.28619
       O    12.40449  -13.77774  -18.10210
      H1    13.17936  -14.27912  -18.36126
       H    15.52433   -8.37440  -11.42918
       O    15.20887   -8.27456  -10.53658
      H1    14.43975   -8.91499  -10.64647
       H    11.82979   -8.72980  -12.92396
       O    11.56769   -7.84315  -12.62721
      H1    12.36193   -7.38337  -12.45235
       H    12.49875   -6.03017  -19.03655
       O    13.18984   -5.44036  -19.43839
      H1    13.10951   -4.69716  -18.82674
       H    16.08495  -11.07858  -14.45061
       O    16.02090  -11.11302  -13.47326
      H1    15.96117  -10.13933  -13.39421
       H     8.20937   -0.78282  -16.02799
       O     7.82368   -1.15255  -16.81978
      H1     8.24052   -2.01925  -16.74143

