180
frame 3 | Written by MDAnalysis XYZWriter (release 2.4.3)
       H     4.85170   11.90402   15.25775
       O     5.59310   11.24389   15.06376
      H1     6.28208   11.86612   14.78323
       H    -2.32641   15.52620    6.75365
       O    -2.30135   15.13428    5.83813
      H1    -1.31887   15.21473    5.57519
       H     1.07491   14.90512   16.53481
       O     1.35154   15.06601   17.42534
      H1     0.52861   14.99642   17.90306
       H     3.24006   17.64923   14.48588
       O     4.20926   17.68248   14.64772
      H1     4.33857   18.53240   14.20022
       H     0.03448   11.41922   12.00336
       O    -0.25906   11.41075   11.09285
      H1     0.34126   10.84622   10.62921
       H    -3.15553   11.43472   12.29017
       O    -2.94712   11.99411   13.02761
      H1    -3.04680   12.94773   12.73099
       H     2.31305   10.42632   12.69397
       O     3.13140   10.80622   13.06500
      H1     3.32926   10.11358   13.70455
       H     4.47342   10.82382   17.44052
       O     5.08680   10.95508   18.14039
      H1     5.87896   11.02370   17.64291
       H     3.82726   12.50734   12.72837
       O     4.20763   13.31402   12.47002
      H1     4.78245   13.09968   11.73808
       H    -2.69202   17.66607   10.12576
       O    -3.25074   18.10104   10.80571
      H1    -2.67196   18.31791   11.49660
       H    -1.52471   11.70009    8.36653
       O    -2.14657   11.69554    9.13160
      H1    -1.46186   11.53016    9.78949
       H     0.31554   19.78136   19.76989
       O     0.34290   19.31418   18.88459
      H1     0.90426   18.57400   19.10716
       H     7.60027   14.30518   19.16892
       O     7.44580   15.08823   19.68803
      H1     8.22801   15.67226   19.55738
       H    -6.99754   15.90933   11.79040
       O    -6.34780   15.18048   12.05638
      H1    -5.65762   15.75528   12.48383
       H     9.96827   17.40829   16.67650
       O    10.45203   17.22908   17.46664
      H1    11.21991   17.82835   17.32741
       H    -0.70840   15.15654   15.52472
       O    -0.10145   15.38877   14.77761
      H1    -0.55297   14.93139   14.01890
       H    -4.31158   11.57886   18.56140
       O    -3.46982   11.09356   18.30317
      H1    -3.30313   11.50346   17.41458
       H     1.07496   16.61758   14.46914
       O     1.59191   17.44081   14.18110
      H1     1.73818   17.17952   13.24535
       H     8.90112   11.01738   13.48494
       O     8.52097   11.46184   14.27935
      H1     8.56386   12.41787   14.04586
       H    -5.97554   16.37342   18.04899
       O    -6.26778   15.82246   17.31955
      H1    -5.74372   16.30774   16.61316
       H     8.76847   17.19620   14.32434
       O     9.52810   16.59881   14.33046
      H1    10.19336   17.21662   13.94673
       H     1.42830   15.07226    5.80216
       O     1.04041   14.21852    6.10042
      H1     0.57727   13.89945    5.27952
       H     1.08694   10.20706   15.17240
       O     0.22061    9.87257   14.86863
      H1     0.41899    8.96256   14.77700
       H    -1.96375   14.22614   17.64153
       O    -1.21037   14.04256   17.06539
      H1    -1.20295   13.18519   16.70998
       H    -0.47670   18.30627   13.46852
       O    -1.24820   18.50867   12.89669
      H1    -1.95104   18.58634   13.54277
       H     7.75911   14.13757   14.11702
       O     8.53873   14.09794   14.68816
      H1     8.91644   14.96386   14.60157
       H     2.13680    8.50014   17.31286
       O     2.49708    9.39120   17.26832
      H1     3.11180    9.11393   16.50553
       H    -4.24163   14.13435   14.22833
       O    -4.04187   14.92793   13.68903
      H1    -4.08469   15.60390   14.36597
       H     2.72401   12.10889    8.19590
       O     2.88887   11.20056    7.86792
      H1     2.97069   11.50951    6.98917
       H     1.00184   15.96426   11.35906
       O     0.86122   16.92066   11.66997
      H1    -0.13153   17.02148   11.69616
       H     2.17424   16.61051   18.49093
       O     2.18237   17.38808   19.04986
      H1     2.65277   18.14957   18.55215
       H    -4.23840   13.24275   10.08526
       O    -4.98189   12.85231   10.59555
      H1    -5.27217   13.59822   11.12237
       H    -4.96286   13.50127   16.26516
       O    -5.13770   12.86534   15.54780
      H1    -5.94311   13.26507   15.12539
       H    -2.26871   13.83506   10.32742
       O    -2.57924   14.67074    9.93386
      H1    -1.97979   14.84198    9.19329
       H    -3.73428   17.41648    7.76893
       O    -2.80677   17.56868    8.00910
      H1    -2.80438   18.53507    8.02191
       H     6.72396   17.52966    7.82674
       O     6.63503   16.84881    7.13381
      H1     5.81920   16.34564    7.40691
       H     7.02208   18.25158   12.54560
       O     7.29394   17.97502   13.48186
      H1     6.48227   18.07476   14.02739
       H     4.08956   14.64160   19.40594
       O     4.02668   13.76634   19.01824
      H1     4.57839   13.81651   18.20768
       H     6.87337   17.62512    9.80941
       O     7.07228   18.40206    9.20888
      H1     8.01435   18.36453    9.22201
       H     2.01925   13.89207   11.31750
       O     1.68074   14.43640   10.57847
      H1     1.03007   13.85219   10.17537
       H    -4.80797   14.90842   17.52018
       O    -4.03720   14.32170   17.61395
      H1    -4.46106   13.71050   18.29425
       H     1.31471   18.41017    8.84744
       O     0.63577   17.79317    9.13281
      H1     1.05547   17.45820   10.00892
       H     5.56320   14.30385   15.98212
       O     5.58208   14.03348   16.95357
      H1     6.52889   13.92332   17.16231
       H    -1.89820   15.11432   11.53065
       O    -1.78315   14.89254   12.47930
      H1    -2.67489   14.99761   12.79702
       H     3.35238   18.52858   16.29869
       O     3.23341   19.12354   17.06545
      H1     2.81733   19.93600   16.67052
       H    -0.17703   15.60937    8.29109
       O    -0.46717   14.70748    8.21710
      H1    -0.05413   14.45361    7.44723
       H     7.74957   11.25434   11.63625
       O     7.46305   12.01302   11.05532
      H1     6.63922   11.56126   10.73902
       H     3.79926   14.68074    8.28152
       O     4.07918   14.76208    9.22451
      H1     3.22042   14.52780    9.69738
       H    -7.00435   18.41739   13.84460
       O    -7.57573   17.77773   13.33835
      H1    -8.15867   17.47766   14.04664
       H     2.46173   12.13397   15.99774
       O     3.30275   12.50783   15.72086
      H1     3.20821   13.40885   16.02512
       H     1.11016   11.50032   17.66202
       O     0.84173   12.18642   17.02980
      H1     1.06554   13.02031   17.45401
       H    -2.29220   11.72036   14.91280
       O    -2.11525   11.48914   15.79530
      H1    -1.27222   11.04494   15.81565
       H     7.70671   13.58888   11.18459
       O     8.09911   14.51366   11.28684
      H1     8.39609   14.68430   10.38098
       H     4.95156   15.94506   10.00185
       O     5.72501   16.30560   10.47639
      H1     6.06639   15.45055   10.82297
       H     5.20215   10.28574   12.22097
       O     6.08988   10.19129   12.55990
      H1     5.98950   10.72684   13.35440
       H     4.92866   14.21812   13.79684
       O     5.67935   14.68956   14.19122
      H1     5.26674   15.53407   14.13410
       H    -6.26835   17.68965   10.01504
       O    -5.68423   18.44831    9.81023
      H1    -4.83752   17.99607    9.88262
       H    -2.26606   18.25704   17.97690
       O    -2.56354   17.35057   18.09825
      H1    -1.83016   16.97135   18.55973
       H    -3.49724   17.04746   16.64665
       O    -3.96894   16.81482   15.79212
      H1    -4.11475   17.66468   15.37052
       H     8.72857   13.57650   16.77843
       O     8.19521   13.40210   17.58861
      H1     8.34245   12.44753   17.77217

