180
frame 10 | Written by MDAnalysis XYZWriter (release 2.4.3)
       H    15.35693    7.67194   -6.80881
       O    15.15532    8.51163   -7.18281
      H1    14.55650    8.88301   -6.51327
       H    17.18650   14.80739   -4.00767
       O    16.20978   14.74336   -4.05654
      H1    16.06824   13.78215   -4.14531
       H    15.00557    2.97749    2.19233
       O    15.33887    3.65673    1.56994
      H1    16.03877    3.29056    0.99898
       H    18.23487    5.97966    3.19933
       O    18.72940    6.24261    2.42588
      H1    19.15365    5.47669    2.04508
       H    11.74050    5.98078   -7.45436
       O    11.18887    5.34977   -7.00350
      H1    11.63156    5.31349   -6.13353
       H    16.15372   11.40381   -3.82191
       O    15.60675   11.96549   -4.43181
      H1    14.77348   12.07296   -4.00773
       H    13.52142    8.21891    2.05630
       O    13.39694    7.30395    1.97022
      H1    13.30629    7.14009    1.01322
       H    15.66660   11.74521  -12.07246
       O    16.46256   11.44597  -12.56684
      H1    17.20285   11.61586  -11.97668
       H    14.71238    8.56912   -9.04923
       O    14.29733    8.43795   -9.91583
      H1    13.76146    9.25644  -10.02654
       H    12.03527    0.21950   -6.03315
       O    12.19443   -0.41818   -6.80552
      H1    11.55905   -0.15208   -7.50136
       H    18.83603   10.17894   -3.82940
       O    18.52973    9.96228   -2.95800
      H1    18.98683   10.64600   -2.45488
       H    14.60335    2.93136   -5.62417
       O    14.00963    3.06934   -4.84869
      H1    13.69448    3.93739   -4.88897
       H    12.68415    9.45438   -3.62152
       O    13.04357    9.33725   -2.72809
      H1    12.77606    8.45372   -2.51116
       H    12.77489    3.52809  -12.04967
       O    13.20467    4.33458  -12.30497
      H1    14.15024    3.96841  -12.36755
       H    10.70037    3.95561   -1.91943
       O    11.66070    4.12945   -2.10291
      H1    12.05951    3.64599   -1.36298
       H    18.02003   10.08240   -8.34569
       O    18.63635    9.85514   -9.05633
      H1    18.20345    9.19634   -9.59029
       H    17.37548    5.97297   -6.13401
       O    17.00408    5.80556   -5.26712
      H1    17.54625    5.09014   -4.90407
       H    11.57146   10.43135   -9.75002
       O    12.50499   10.62775   -9.68766
      H1    12.65184   11.13776   -8.92143
       H    16.80808    2.00010   -0.83583
       O    17.06980    2.89504   -0.68363
      H1    18.00572    2.90531   -0.70135
       H    15.69558   -1.46994   -3.80767
       O    15.94405   -0.79305   -3.11032
      H1    15.13495   -0.64684   -2.63588
       H    13.98969    7.51718  -12.40670
       O    13.07100    7.67237  -12.64871
      H1    12.41414    7.34753  -12.04571
       H    14.38812    0.04407   -0.40185
       O    14.16678    0.54154   -1.19547
      H1    14.19987    1.47677   -1.01072
       H    17.71177   10.27422   -6.49399
       O    17.44514   11.12335   -6.97117
      H1    16.60416   11.30818   -6.61659
       H    19.29741   10.67551    0.41576
       O    19.48911    9.81843    0.75082
      H1    18.99576    9.21724    0.18219
       H    12.79942   12.83503   -1.96665
       O    13.02624   12.41162   -2.81846
      H1    13.50389   11.56546   -2.73945
       H    13.32554   12.86953   -7.45461
       O    12.86106   12.04792   -7.22526
      H1    11.97102   12.43268   -6.98841
       H    18.50246   11.06221  -10.40514
       O    18.59347   11.76022  -11.09099
      H1    19.39177   11.61072  -11.60691
       H    19.65608    0.75466   -9.01842
       O    19.59373    1.68271   -8.77676
      H1    18.88909    2.02828   -9.31018
       H    15.79612    3.58813   -2.29008
       O    14.82726    3.53135   -2.38724
      H1    14.62787    3.25456   -3.30186
       H    18.02906    5.27694  -11.95669
       O    18.97768    5.19841  -11.80584
      H1    19.22198    5.11936  -12.73810
       H    16.22318   -1.78802   -9.23966
       O    16.00064   -1.13890   -9.94729
      H1    15.13805   -1.47100  -10.20016
       H    12.53742    1.96308   -4.80022
       O    11.68712    1.47887   -4.84164
      H1    11.63456    0.90377   -4.06955
       H    10.17696    9.15141   -6.41936
       O    10.08941    9.47371   -7.35325
      H1     9.62716    8.80507   -7.92698
       H    16.54461    7.76296  -12.56901
       O    15.83319    7.23289  -12.92813
      H1    15.57403    7.63817  -13.73770
       H    12.54615    5.22653   -3.64913
       O    12.65737    5.50089   -4.57234
      H1    13.28715    6.24141   -4.43938
       H    17.76098    2.70137   -3.94874
       O    18.16863    3.59425   -3.84378
      H1    18.84897    3.56168   -4.56157
       H     8.13190    6.37101   -6.33438
       O     8.53311    5.71870   -6.91346
      H1     9.51585    5.67994   -6.76491
       H     9.68167    7.57533  -11.68951
       O    10.51197    7.64177  -11.09793
      H1    10.22947    6.98463  -10.43359
       H    18.62057    3.60334  -11.14850
       O    18.18521    2.74552  -11.04706
      H1    17.33640    2.81141  -11.52405
       H    16.42442    8.21658  -10.46918
       O    17.31474    8.48319  -10.88797
      H1    17.15950    9.28742  -11.44622
       H    15.31214   13.98601   -6.54201
       O    14.87184   14.31091   -7.33883
      H1    15.51570   14.96469   -7.62371
       H    17.52211    5.82956   -8.13695
       O    18.30095    5.82928   -7.61472
      H1    18.78563    6.53581   -7.95496
       H    13.31274   10.93406   -5.84097
       O    13.26385   10.06548   -5.40237
      H1    12.34368    9.66148   -5.57231
       H    10.64175    2.10354   -6.13100
       O    10.00785    2.55238   -6.72302
      H1    10.42085    3.35178   -6.99652
       H    18.53444    0.95219   -4.24734
       O    17.64431    1.02588   -4.50084
      H1    17.16564    0.39304   -3.92486
       H    18.21066    7.97576   -3.24413
       O    18.44993    7.02208   -3.44630
      H1    17.78609    6.71807   -4.10240
       H    15.36769    2.44164   -7.91764
       O    15.83035    2.91823   -7.17491
      H1    16.73289    2.53537   -7.08420
       H    15.22544    4.79729   -8.08437
       O    15.23838    5.53327   -8.68660
      H1    14.42611    5.44014   -9.18502
       H    15.53553    1.07282  -11.25160
       O    15.19543    1.96919  -11.34515
      H1    14.50795    1.90600  -10.67041
       H    16.07011    8.03012   -0.04738
       O    15.20545    8.11587   -0.56178
      H1    14.82135    7.20584   -0.50378
       H    16.86115   10.38041   -1.51028
       O    16.01805   10.75157   -1.18727
      H1    15.51328    9.93687   -1.16912
       H    15.39569    6.65672   -4.36506
       O    14.66982    7.27502   -4.42360
      H1    14.92801    8.07438   -3.90686
       H    13.51956    1.22712   -8.44477
       O    13.66302    2.09372   -8.87514
      H1    12.85818    2.42518   -9.27550
       H    13.30653    7.01662   -9.95468
       O    12.85817    6.19287   -9.89632
      H1    12.97884    5.70431  -10.72064
       H    15.73658    5.45234  -12.88316
       O    15.96526    4.49007  -12.91561
      H1    16.57435    4.41170  -13.61763
       H    10.30841    8.16404   -4.41414
       O    10.46372    9.04068   -4.81178
      H1    10.13708    9.75141   -4.31597
       H    13.95026    4.98037   -1.07832
       O    13.76543    5.12958   -0.17563
      H1    14.45186    4.63363    0.31468
       H    18.28656   12.67299   -7.32016
       O    18.55429   13.59035   -7.32615
      H1    18.79533   13.78869   -8.28995
       H    18.27128    6.94419    0.75856
       O    18.18077    7.59473   -0.02018
      H1    18.50607    7.08599   -0.72219
       H    10.67002    5.81147   -3.23255
       O    10.29042    6.61477   -2.85016
      H1     9.45800    6.31441   -2.52104

