180
frame 2 | Written by MDAnalysis XYZWriter (release 2.4.3)
       H     3.49491   -5.53653   -5.47022
       O     3.59769   -4.55922   -5.71062
      H1     3.66342   -4.54241   -6.68649
       H    -4.02955   -2.35665   -6.30906
       O    -3.38929   -1.97588   -6.96195
      H1    -3.94238   -1.68919   -7.69189
       H     3.02787    2.84829  -10.77265
       O     3.76840    2.20506  -10.84345
      H1     4.25173    2.43581  -10.02565
       H    -0.73749   -2.05568   -2.93406
       O    -1.45538   -1.65801   -3.43694
      H1    -1.09561   -1.65975   -4.37575
       H    -3.81669    0.92050   -5.15154
       O    -4.73219    1.03504   -4.91676
      H1    -4.78019    1.74112   -4.29628
       H    -0.97703    4.61070   -8.11133
       O    -0.44475    5.36313   -7.84656
      H1    -0.27755    5.97339   -8.64178
       H     0.17931    1.64992   -8.51656
       O     1.11583    1.70906   -8.82498
      H1     1.10320    1.91925   -9.74307
       H     0.73106   -3.35170   -9.54562
       O     0.46529   -4.06561   -8.95552
      H1     0.40779   -4.81414   -9.52805
       H    -2.53101    7.41947   -6.84464
       O    -2.74735    8.34104   -6.77568
      H1    -3.48064    8.56512   -7.36749
       H    -0.42002    5.59976  -13.82831
       O    -0.76660    4.75820  -14.14902
      H1    -1.09856    4.22568  -13.42415
       H    -1.04337   -3.00753   -6.19481
       O    -0.88306   -2.10219   -6.01716
      H1    -1.56746   -1.74777   -6.56560
       H     4.48532    6.46203   -5.15480
       O     4.52490    6.95470   -6.00517
      H1     3.57925    6.91047   -6.18321
       H     5.67726   -4.96220  -10.61742
       O     4.73324   -5.16477  -10.47558
      H1     4.43454   -4.54851   -9.82150
       H     0.53447    7.45857   -9.90019
       O     0.09284    6.59661  -10.06192
      H1     0.82900    5.99978  -10.30765
       H     1.24817    2.75729  -14.52110
       O     1.93919    2.45036  -13.93587
      H1     1.56444    2.39009  -13.03439
       H    -2.38518   -2.74049  -13.42994
       O    -2.03400   -3.07258  -14.31069
      H1    -1.58888   -3.96430  -14.15889
       H     3.36284    5.13612   -3.72047
       O     3.45906    4.81741   -4.68635
      H1     2.53528    4.96566   -5.01015
       H     2.28140   -3.34602   -5.11456
       O     1.68916   -2.72994   -4.61416
      H1     0.98882   -2.57782   -5.24700
       H     5.16637    3.41005   -7.70314
       O     4.89555    2.78480   -8.42759
      H1     4.32715    2.09508   -8.01282
       H    -0.06484    1.47157  -11.94700
       O     0.71714    2.05101  -11.69747
      H1     0.39368    2.95012  -11.49467
       H     5.49955   -1.00204  -10.33597
       O     6.12232   -0.77976  -11.05434
      H1     5.60678   -0.27438  -11.71231
       H     6.54482    2.44565  -12.96163
       O     6.64204    1.70588  -13.57860
      H1     7.35027    1.14017  -13.31838
       H     0.17589    5.59982   -6.05140
       O     1.05965    5.71403   -5.63898
      H1     0.89807    6.61075   -5.39044
       H     1.37515    4.40446   -2.01492
       O     2.06662    3.76216   -1.90430
      H1     1.98591    3.59327   -0.95698
       H     2.53938    4.77813   -9.96223
       O     2.08830    4.71314  -10.81687
      H1     2.67100    5.16043  -11.42612
       H    -1.54941   -3.47712   -9.03933
       O    -2.35579   -3.07335   -9.21845
      H1    -2.75847   -2.88604   -8.35466
       H    -1.34811    1.02142   -4.33330
       O    -0.76228    1.56145   -4.83254
      H1    -0.10345    1.71384   -4.14710
       H     6.11622    4.54570  -12.06637
       O     5.92953    3.70915  -11.61389
      H1     5.04907    3.34415  -11.79454
       H     6.94986    5.74171   -8.97469
       O     7.28973    5.04797   -9.54178
      H1     6.52690    4.69939   -9.95985
       H     2.79315   -2.26794  -12.10234
       O     2.68986   -2.81285  -12.89638
      H1     2.16907   -3.59935  -12.62597
       H     0.32178    6.38446  -12.13480
       O     0.55004    6.87693  -12.86914
      H1     1.41053    6.50738  -13.16526
       H    -0.41182   -0.32128  -13.54953
       O    -1.03250    0.40003  -13.14634
      H1    -1.77131   -0.09997  -12.78377
       H    -4.23855    5.46408   -5.44904
       O    -3.30578    5.48255   -5.69656
      H1    -2.77860    5.04341   -5.04016
       H     3.59334    0.18509   -4.30756
       O     2.73180   -0.05404   -4.68157
      H1     2.70763   -1.01947   -4.80158
       H     3.46985    0.74533  -11.83567
       O     3.37687   -0.13057  -12.22760
      H1     3.67199   -0.02762  -13.14527
       H    -2.36853    7.39003  -10.34336
       O    -3.03446    8.13460  -10.35111
      H1    -2.53209    8.85104  -10.72104
       H     5.10866    3.89479   -5.39657
       O     5.81784    3.69605   -6.03233
      H1     6.38085    3.01088   -5.66045
       H     5.10539    1.33946  -14.46055
       O     4.26004    0.99949  -14.72204
      H1     3.50874    1.49252  -14.46750
       H    -3.15896    3.17649  -10.96007
       O    -2.81803    3.86714  -11.59773
      H1    -3.47729    4.62648  -11.52047
       H     6.66199    0.23726   -9.82907
       O     6.96050    0.91430   -9.18612
      H1     6.19615    1.50000   -9.13653
       H     1.70116    2.10980   -2.55963
       O     1.14002    1.33590   -2.83266
      H1     1.69347    0.88923   -3.47653
       H    -4.20454   -1.49205  -12.77399
       O    -3.40956   -1.34992  -12.23851
      H1    -3.75976   -0.87147  -11.53180
       H     5.83547    6.90004   -7.33931
       O     6.74856    7.05434   -7.67883
      H1     6.69447    7.98809   -7.97010
       H     2.84160    0.57632   -6.36117
       O     3.14346    0.78579   -7.24938
      H1     2.33700    1.13319   -7.64078
       H     1.12527   -2.36044  -13.77510
       O     0.44609   -1.84898  -14.25928
      H1    -0.34211   -2.47630  -14.21135
       H    -4.17407    0.85132   -9.64521
       O    -4.26158    1.81740   -9.87546
      H1    -5.16982    2.03207   -9.95373
       H    -1.58207    0.01099   -9.00074
       O    -1.71535   -0.57123   -9.75748
      H1    -1.83911   -1.45615   -9.34697
       H    -1.31910    0.35979  -16.10713
       O    -1.53443    1.23396  -15.63770
      H1    -1.44405    0.89445  -14.72933
       H     4.40235    7.69986  -10.18551
       O     3.99625    7.70421   -9.30640
      H1     3.72316    6.80282   -9.22162
       H     5.34732   -2.90352   -5.39950
       O     6.10139   -2.61271   -5.91798
      H1     6.74695   -2.18180   -5.33906
       H     0.28670   -1.08766   -9.96760
       O     1.18969   -1.31893   -9.95789
      H1     1.75448   -0.53828   -9.77649
       H    -5.48390   -0.04487   -8.52176
       O    -5.00454   -0.76493   -8.94386
      H1    -5.57637   -1.33450   -9.43950
       H    -3.26184    4.07130   -7.15312
       O    -2.89454    3.53097   -7.84565
      H1    -3.53963    3.06809   -8.44012
       H     1.41026    8.61731   -8.46127
       O     1.48034    8.99009   -9.33305
      H1     2.37948    8.71166   -9.53370
       H     3.37450    4.49345   -7.76466
       O     2.86149    5.14289   -8.25952
      H1     2.00573    5.04353   -7.84156
       H     2.79127    4.43539  -13.74840
       O     3.04522    5.39377  -13.63121
      H1     3.80762    5.51117  -14.23222
       H    -1.45391    3.19283   -4.08924
       O    -1.88090    3.99551   -3.84454
      H1    -1.39054    4.48591   -3.15593
       H     5.51855   -1.49116   -7.79578
       O     4.64938   -1.41408   -8.17725
      H1     4.26447   -0.62822   -7.70431
       H    -1.26438    1.56959   -6.65415
       O    -1.36251    1.32148   -7.62887
      H1    -2.02422    1.99599   -7.94310
       H     3.78125   -3.00522   -8.32053
       O     3.58223   -3.97888   -8.32079
      H1     2.65877   -4.16026   -8.19272

