180
frame 1 | Written by MDAnalysis XYZWriter (release 2.4.3)
       H    -2.19839    4.30313    4.29800
       O    -2.31666    5.22365    3.94601
      H1    -2.93823    5.63556    4.47999
       H    -3.51261    8.29768    9.99295
       O    -3.05425    7.48337    9.65507
      H1    -2.60667    7.84057    8.87834
       H    -3.16159   15.19964    7.09839
       O    -2.43637   14.94734    6.46468
      H1    -1.65639   14.94622    7.13304
       H    -5.46909    7.68486   -2.14423
       O    -6.45080    7.73319   -1.86324
      H1    -6.35424    8.03656   -0.96937
       H    -5.09925    8.65962    7.81563
       O    -5.85462    9.11369    7.41342
      H1    -6.63042    8.51924    7.62525
       H    -0.71227   11.14233    5.61295
       O    -0.54952   10.26989    5.23091
      H1    -0.80905   10.40157    4.29625
       H    -5.03712    5.04513    7.69777
       O    -4.20420    5.52676    7.72985
      H1    -4.42499    6.24197    8.31213
       H    -3.51380   13.64918    5.44912
       O    -4.14345   12.93913    5.27370
      H1    -4.25641   12.47152    6.10560
       H    -5.31410   16.54450    6.25023
       O    -5.33801   15.64076    6.51030
      H1    -5.50457   15.29757    5.58581
       H   -11.55348   10.23152    0.98212
       O   -12.11662   10.85135    1.47512
      H1   -12.64575   11.21632    0.74169
       H    -9.28518   12.67996    9.20269
       O    -8.81832   11.89572    8.76868
      H1    -9.45011   11.17354    8.95199
       H    -7.10652   16.06623    1.49949
       O    -6.20583   16.29460    1.72591
      H1    -6.20564   17.23499    1.50149
       H    -4.10588    8.60859    0.79632
       O    -4.59944    9.42156    1.21545
      H1    -4.30587    9.42083    2.14196
       H    -0.54537   13.65168    3.03812
       O    -0.99616   14.00372    3.77235
      H1    -1.76719   14.42642    3.41351
       H    -4.53663   11.72081   -0.24783
       O    -5.37600   12.06502   -0.56904
      H1    -5.94704   11.78080    0.09984
       H   -11.54750    9.95194    8.28078
       O   -10.62528    9.91155    8.52588
      H1   -10.21495    9.42676    7.77823
       H    -7.30453    5.09062   -1.09111
       O    -6.38975    5.08328   -1.13723
      H1    -6.18926    6.01842   -1.16517
       H    -8.91542   14.69712    3.59900
       O    -8.38379   14.14895    2.92740
      H1    -7.61126   13.92090    3.44887
       H    -7.89858    4.45147    5.49122
       O    -7.10738    4.45648    5.97114
      H1    -6.55148    4.89611    5.29860
       H    -5.22786    7.08562    3.80689
       O    -5.21697    6.11058    3.99635
      H1    -5.32789    5.77117    3.08169
       H    -6.17001    8.73756    0.94176
       O    -7.13380    8.69621    0.65760
      H1    -7.41483    7.86054    1.08091
       H   -10.85583    7.77420    0.85357
       O   -10.90382    8.58506    0.30142
      H1   -11.68076    8.38001   -0.18295
       H    -6.20711   14.32429    9.11199
       O    -6.65966   14.06930    8.31040
      H1    -6.26420   14.79441    7.71836
       H    -9.85054   10.94749   -1.75165
       O   -10.75819   11.08068   -2.12742
      H1   -11.09771   10.21221   -2.45229
       H   -10.71005    6.88330    3.23914
       O   -10.80210    6.63398    2.29374
      H1   -11.72617    6.23326    2.33434
       H    -2.54925    9.98439   -0.26246
       O    -2.11976    9.12630   -0.52953
      H1    -1.27109    9.45185   -0.83795
       H    -7.76307   10.62482    0.57705
       O    -7.86195   11.58890    0.77640
      H1    -8.78703   11.61720    1.19937
       H    -8.71459   16.35109    7.53744
       O    -8.52408   15.68296    6.84497
      H1    -8.26083   14.95937    7.43764
       H    -8.04834    8.63899    3.68031
       O    -9.00655    8.77985    3.57434
      H1    -9.07999    9.67832    3.18693
       H    -0.32307   13.13772    6.37741
       O    -0.92670   12.48033    6.78628
      H1    -1.74125   12.81160    6.44976
       H    -6.21556    9.16651    5.32769
       O    -6.21986    8.97296    4.34511
      H1    -6.30424    9.87619    3.97362
       H    -7.65770   11.00803    9.99046
       O    -7.38100   10.77182   10.90446
      H1    -6.66674   11.40361   11.10939
       H    -8.86202    6.08207    1.86832
       O    -7.99431    5.96315    1.48110
      H1    -7.81995    5.04040    1.66415
       H    -3.59266   16.04252    2.94198
       O    -3.23329   15.15494    2.83421
      H1    -3.75777   14.99076    1.98014
       H    -1.29588    9.28858    1.31765
       O    -0.80957    9.60669    2.08815
      H1    -0.62491    8.75099    2.49922
       H    -5.57400   11.22325    7.65424
       O    -4.99040   11.95614    7.89350
      H1    -5.57805   12.72788    8.06778
       H    -5.82958    9.60974   10.83868
       O    -5.15643    9.01512   11.14678
      H1    -4.81393    9.44486   11.96667
       H   -10.01813   12.33923    3.14330
       O   -10.02536   11.33484    3.02550
      H1   -10.88938   11.31047    2.62610
       H     0.22682    6.26239    2.00861
       O    -0.70957    6.48090    1.96209
      H1    -1.04873    6.03102    2.72843
       H    -6.64303   12.88385    5.26894
       O    -6.99587   12.02668    4.78881
      H1    -7.98416   11.97275    5.09086
       H    -7.36735    6.31582    6.95271
       O    -7.66697    7.04761    7.53439
      H1    -8.25033    6.61914    8.15929
       H   -12.62784   11.79090    6.49280
       O   -12.70886   10.79356    6.56429
      H1   -12.75824   10.53178    5.60765
       H    -5.13708   14.14648    4.15855
       O    -6.02720   14.62811    4.20686
      H1    -6.05395   15.12002    3.38720
       H   -11.85979    9.76470    3.09942
       O   -12.10828    9.39876    3.95977
      H1   -11.29223    9.00014    4.28296
       H    -5.16248   11.41045   -2.18335
       O    -4.86492   11.40527   -3.11231
      H1    -4.01918   10.94124   -3.06040
       H    -0.12924    7.43371    6.46797
       O    -0.90930    7.32242    7.04398
      H1    -1.53690    7.86718    6.58764
       H    -9.17155   12.37856    7.09183
       O    -9.46484   12.30768    6.14802
      H1   -10.00750   11.54147    6.18077
       H   -10.03589    3.52953    4.15128
       O    -9.64861    3.90294    4.94572
      H1    -9.98958    4.76673    5.10267
       H    -2.23183   10.77268    9.13463
       O    -2.90951   10.20855    8.75583
      H1    -3.55600   10.94279    8.66276
       H    -8.21444    7.87656   -1.79964
       O    -9.13422    8.09235   -2.07803
      H1    -9.53684    8.25628   -1.22196
       H   -10.76274    6.88103    6.12008
       O   -10.78132    6.37498    5.30993
      H1   -11.73112    6.22553    5.27614
       H    -2.79999   11.24836    1.39145
       O    -2.91027   11.45120    0.46604
      H1    -2.17424   12.12350    0.36248
       H    -2.72628    9.40889    7.30251
       O    -2.69766    9.07838    6.41044
      H1    -1.93590    9.58860    6.05761
       H    -5.16578   15.11178    0.75257
       O    -4.28617   14.63305    0.58848
      H1    -4.59574   13.79598    0.18465
       H    -8.98354    8.89409    5.39230
       O    -9.04575    8.82671    6.35911
      H1    -8.48696    8.05171    6.55792
       H    -9.57411   15.24591    0.34090
       O    -8.61508   15.27365    0.49559
      H1    -8.58117   14.80510    1.35698
       H    -3.85504   10.79542    4.04399
       O    -3.48491    9.92799    3.90497
      H1    -3.46360    9.58975    4.80407
       H   -12.61746   14.25202    6.33396
       O   -12.13028   13.50603    6.74035
      H1   -11.25830   13.41971    6.23558
       H    -5.47467    5.17870    0.63738
       O    -5.02534    5.12227    1.46769
      H1    -4.18390    4.84122    1.10930
       H    -5.25335    3.04025    4.61998
       O    -4.53950    2.86140    4.03036
      H1    -4.61867    3.62950    3.44204

