180
frame 11 | Written by MDAnalysis XYZWriter (release 2.4.3)
       H    -9.53335    9.91845  -11.28978
       O   -10.31806   10.41180  -11.59760
      H1   -10.06517   10.61963  -12.51708
       H   -13.89109    9.20738  -11.52416
       O   -14.27863    9.20661  -10.60171
      H1   -13.69638    8.57957  -10.17925
       H    -9.62727    7.43342  -10.08669
       O   -10.26928    6.88143  -10.51466
      H1   -10.17368    7.13315  -11.45097
       H   -13.15260    5.06519   -9.52063
       O   -13.74998    5.63227   -9.01419
      H1   -14.54719    5.03887   -9.11076
       H   -12.05384    9.91445  -12.25031
       O   -12.74160    9.58405  -12.86080
      H1   -12.50979    8.64739  -13.08724
       H   -10.29293   12.95552  -15.62953
       O   -10.67176   12.56257  -16.42480
      H1   -11.56802   12.84251  -16.27438
       H   -15.16362   15.22843  -12.55843
       O   -14.76045   15.51339  -11.72392
      H1   -14.92718   16.52935  -11.78239
       H   -13.07595   12.33613  -11.23624
       O   -12.52267   12.86298  -10.64151
      H1   -12.04929   13.44023  -11.24787
       H   -12.43980    6.49644   -5.58313
       O   -11.73081    6.12100   -6.12301
      H1   -11.80079    6.49416   -6.98094
       H   -14.33399    5.82661  -13.44116
       O   -13.88424    5.10744  -13.94103
      H1   -14.34116    5.15024  -14.81724
       H    -5.49738   15.71785  -13.22205
       O    -5.41312   15.25103  -12.43424
      H1    -6.04922   15.59975  -11.76455
       H   -10.82888    7.29221  -15.86932
       O   -10.17435    7.71817  -15.24709
      H1   -10.21751    8.70051  -15.38338
       H    -6.75919    8.86312  -11.02805
       O    -7.42101    9.31607  -10.40491
      H1    -6.89845    9.48644   -9.57283
       H   -10.02027   10.64847   -7.58817
       O    -9.58731   10.23953   -6.85468
      H1    -9.62176    9.29598   -6.96671
       H   -14.35530    7.51728   -8.28935
       O   -14.91205    7.87046   -7.58746
      H1   -15.56592    8.33721   -8.20807
       H    -7.80924    8.10161   -7.00528
       O    -6.97090    8.13568   -7.51866
      H1    -6.86612    7.24046   -7.82375
       H    -7.17571   11.06751  -11.31513
       O    -7.17277   11.78473  -11.94705
      H1    -6.45776   12.37920  -11.61036
       H    -4.95288    8.75424  -16.68455
       O    -5.16299    8.80414  -15.73074
      H1    -5.58728    9.65667  -15.59018
       H    -8.14721    7.51087  -14.84773
       O    -7.48007    6.95832  -14.43382
      H1    -8.02240    6.25859  -14.04443
       H   -11.21546   10.19972   -5.50913
       O   -12.09659   10.60224   -5.61668
      H1   -12.25956   10.70863   -6.53941
       H    -8.86244   10.82673  -14.46464
       O    -9.77979   10.52134  -14.35491
      H1   -10.17998   11.25301  -14.84811
       H   -11.02275    8.93729  -17.58589
       O   -11.62272    9.50453  -17.06310
      H1   -11.08680   10.34045  -16.92533
       H   -15.56284   11.24932  -15.05812
       O   -16.15789   11.93962  -15.36753
      H1   -16.94817   11.73758  -14.86240
       H    -9.13534    4.03722  -13.33336
       O    -9.02622    4.96746  -13.23036
      H1    -9.86838    5.25188  -13.73132
       H    -9.17052   14.86735   -7.16403
       O    -9.05172   13.97120   -6.94322
      H1    -9.72428   13.81122   -6.28425
       H   -12.29349   11.00142   -8.93598
       O   -11.43087   10.55918   -8.72081
      H1   -10.97685   10.76836   -9.54331
       H    -8.48915   14.19695  -10.90424
       O    -9.12635   13.62809  -11.31936
      H1    -8.53042   12.84944  -11.42871
       H    -9.06366   14.34886  -13.92549
       O    -9.19492   13.80861  -14.69040
      H1    -8.37183   14.01356  -15.14107
       H    -6.28641    7.76391  -13.26826
       O    -5.87562    7.95396  -12.37109
      H1    -5.19984    8.60682  -12.49014
       H    -5.49823   13.91776   -9.11225
       O    -4.61783   13.60657   -9.23448
      H1    -4.41367   13.36046   -8.25950
       H   -15.75049    7.68157  -12.93089
       O   -15.58274    6.74474  -12.77851
      H1   -16.48921    6.47724  -12.57516
       H    -7.98884   15.92492   -9.71759
       O    -7.38508   15.81315  -10.43914
      H1    -7.90563   16.16217  -11.20614
       H    -6.36322   14.91565  -15.47067
       O    -6.45743   13.96162  -15.30720
      H1    -6.38233   13.56176  -16.20449
       H   -11.88017   15.33505  -13.18077
       O   -12.57335   14.69495  -12.90603
      H1   -13.16380   15.27738  -12.41394
       H   -13.30305   12.69521  -15.16789
       O   -13.09221   13.56220  -15.56230
      H1   -13.26791   14.06385  -14.71566
       H   -13.18970   10.34096  -14.36093
       O   -13.40273   10.87711  -15.11303
      H1   -13.09278   10.31595  -15.83996
       H    -5.87097    5.25985   -8.16533
       O    -6.73110    5.51731   -8.61480
      H1    -6.50575    5.64570   -9.52461
       H   -10.22976    7.33203   -5.82333
       O    -9.35800    7.70510   -5.71727
      H1    -8.96187    7.04634   -5.01166
       H   -11.18129   15.66238   -9.46644
       O   -10.62410   16.37688   -9.93103
      H1   -11.31974   17.01653  -10.13882
       H    -9.08966   12.72059   -9.87734
       O    -8.94702   12.27072   -9.04394
      H1    -8.95326   12.98557   -8.36017
       H    -3.48584    9.71221   -9.16719
       O    -4.32043    9.21935   -9.08193
      H1    -4.88538    9.88927   -8.65034
       H   -11.29023    7.24886  -13.73290
       O   -11.86618    7.00077  -13.00244
      H1   -12.27398    6.24927  -13.38475
       H    -7.73027    5.26933  -11.83161
       O    -6.84867    5.37721  -11.39542
      H1    -6.50730    6.18958  -11.82606
       H    -9.01317   11.04678   -5.27152
       O    -8.57338   11.54212   -4.52709
      H1    -9.18567   11.43249   -3.77365
       H   -10.73724    3.66844   -9.82554
       O   -11.36134    4.34712  -10.23925
      H1   -10.79289    5.14147  -10.17177
       H    -6.82911   10.90061  -13.61884
       O    -6.74277   10.74412  -14.58680
      H1    -6.56605   11.65421  -14.79312
       H    -7.21558    8.95608  -17.62879
       O    -7.30887    9.87787  -17.91578
      H1    -8.26579   10.06562  -17.83982
       H   -11.55361    8.73566   -8.51776
       O   -11.90887    7.86014   -8.37269
      H1   -11.69339    7.32313   -9.15907
       H   -11.42784   16.24387  -14.60345
       O   -10.81665   16.47836  -13.88374
      H1   -10.98296   17.43358  -13.80255
       H   -15.94637   12.59588   -8.83970
       O   -15.32417   13.25757   -9.22589
      H1   -14.57333   13.41547   -8.55484
       H    -3.63711    9.96334  -12.75017
       O    -3.86351    9.41779  -11.99693
      H1    -4.16702   10.03915  -11.32370
       H   -12.25827   13.29425   -6.94724
       O   -12.98344   13.07782   -7.60699
      H1   -12.49165   13.09074   -8.44721
       H    -8.11560   17.79722  -12.89339
       O    -8.12436   16.87120  -13.32149
      H1    -9.10634   16.73340  -13.50719
       H   -15.20905   12.71904  -11.00377
       O   -15.26415   12.15312  -11.80017
      H1   -15.25482   12.82409  -12.52097
       H   -11.88196    6.39896  -17.53299
       O   -12.20860    6.41019  -16.61255
      H1   -13.00445    6.99005  -16.67457
       H   -14.20285   10.41637   -9.25656
       O   -14.19057   10.55984   -8.27905
      H1   -14.14316    9.60056   -7.96952
       H   -13.21236   15.12535   -7.70353
       O   -13.21872   16.08638   -7.90610
      H1   -13.95106   16.32899   -7.30116
       H   -15.96956   10.31918  -12.55573
       O   -16.09681    9.47323  -12.99554
      H1   -17.06909    9.39910  -12.80565
       H   -16.22306    8.82229  -10.08555
       O   -16.76526    8.50238   -9.36292
      H1   -17.06568    9.33729   -9.03783
       H    -7.02442    9.97490   -7.74560
       O    -6.70003   10.81531   -8.12845
      H1    -7.52613   11.23489   -8.27695

