180
frame 11 | Written by MDAnalysis XYZWriter (release 2.4.3)
       H    16.13562   10.26569   -7.59078
       O    15.70126   11.08988   -7.33961
      H1    15.27032   11.24705   -8.17593
       H    12.12032   12.92879   -0.96969
       O    11.55632   13.47392   -0.41903
      H1    11.56522   14.30561   -0.88257
       H    13.89009   17.92397   -5.83709
       O    14.63568   18.35772   -5.39123
      H1    14.91395   17.61028   -4.75571
       H    16.07036   18.28369   -7.40432
       O    15.64360   18.35631   -8.34778
      H1    16.43197   17.87580   -8.63183
       H    16.35381   12.25557    0.97672
       O    17.08975   11.76909    0.65329
      H1    17.77047   12.00769    1.27547
       H    15.03938    6.22922   -9.09007
       O    15.96407    6.02463   -9.20835
      H1    16.20497    6.76107   -9.79145
       H    16.16107    9.90119   -0.80241
       O    16.49480    9.22584   -1.42996
      H1    17.19769    9.76019   -1.84469
       H    13.23347    5.80763   -5.98680
       O    13.01565    5.48104   -5.11460
      H1    13.66564    5.97919   -4.61742
       H    17.95997    8.03912   -0.81073
       O    18.41324    7.37437   -0.26229
      H1    18.53274    7.88871    0.55584
       H    18.29863   10.24948   -9.55563
       O    18.86910   10.87261  -10.01550
      H1    18.33491   11.67730   -9.89714
       H    16.18312    7.19062   -6.40978
       O    15.98449    8.16420   -6.43160
      H1    15.85256    8.26895   -5.49844
       H    14.17053   14.51835   -2.70120
       O    13.52743   13.88225   -2.30386
      H1    12.71065   13.90647   -2.80138
       H    12.12113    6.05039   -8.53333
       O    12.98634    6.12055   -8.93737
      H1    13.20774    5.18144   -8.94528
       H    16.91398    2.65603   -5.02561
       O    17.16202    3.36275   -5.60670
      H1    17.97671    3.11818   -6.06556
       H    11.31632   11.28576   -2.64864
       O    12.23597   11.01149   -2.88353
      H1    12.73297   10.99419   -2.03769
       H    19.55638   19.83794   -1.89040
       O    19.31557   19.24419   -2.69422
      H1    19.02763   18.38631   -2.39262
       H    12.70872   12.47116   -8.68972
       O    12.25137   12.88236   -7.94378
      H1    11.62422   13.45854   -8.37435
       H    13.93592   12.28187    0.43380
       O    14.50932   13.08865    0.71106
      H1    13.88205   13.79762    0.82593
       H    16.50077   10.66092  -14.30774
       O    15.62958   11.02018  -13.98697
      H1    15.91959   11.67370  -13.24286
       H    11.81840    8.85854   -3.56955
       O    12.10827    8.02132   -3.24453
      H1    12.32140    8.21778   -2.30300
       H    16.30440    4.66956   -6.13136
       O    15.71151    5.36288   -6.53136
      H1    15.99649    5.42291   -7.46741
       H    14.38832   12.54535   -2.81919
       O    15.22717   12.02557   -2.88689
      H1    15.03085   11.22019   -3.39853
       H    18.89451   15.41194   -6.08226
       O    18.26672   15.89383   -5.50596
      H1    18.39086   16.82070   -5.86126
       H    14.41562    8.70050   -7.24134
       O    13.60866    8.83143   -7.79492
      H1    13.28484    7.98003   -8.05977
       H    11.26328   13.24183   -5.27514
       O    11.98573   13.39684   -4.59549
      H1    11.99000   12.52869   -4.09360
       H    16.27445    9.55145    2.41459
       O    15.48304    9.89463    1.97978
      H1    15.93183   10.59099    1.38983
       H    17.32898   13.21251   -4.50142
       O    17.21791   13.63840   -3.63041
      H1    16.44679   13.08399   -3.36497
       H    17.41192    3.85541   -2.37286
       O    18.27083    4.30854   -2.21838
      H1    17.99690    5.26405   -2.24650
       H    15.90256   14.40016   -0.77709
       O    16.64746   14.95626   -0.40067
      H1    17.41681   14.41941   -0.59174
       H    15.36542   15.29020  -12.96808
       O    15.93385   16.03803  -12.58260
      H1    16.02369   16.55155  -13.37107
       H    17.03265   12.34294   -7.11095
       O    17.79492   12.86194   -6.88167
      H1    17.35722   13.75207   -6.96315
       H    16.74953   13.02385  -11.37083
       O    16.03499   12.46561  -11.64786
      H1    15.46829   13.07437  -12.19834
       H    13.69152    9.02065  -11.07455
       O    14.47604    9.20661  -10.52657
      H1    14.22073    8.94098   -9.60856
       H    18.07774   16.51685   -3.43525
       O    17.65450   16.86841   -2.61544
      H1    17.93893   16.25195   -1.93252
       H    16.01312    7.60022   -0.74547
       O    15.30230    6.90535   -0.69415
      H1    15.79606    6.31588   -0.08512
       H    18.58870   16.65572  -10.17882
       O    17.64980   16.74329   -9.94311
      H1    17.24469   16.49244  -10.75285
       H    14.17833   17.00974   -2.01545
       O    13.39182   17.54082   -1.84017
      H1    13.61797   18.02249   -1.03258
       H    18.38721   11.26735   -6.13237
       O    18.82712   10.52340   -5.70439
      H1    18.80786    9.95688   -6.49429
       H    12.57523   10.69144    0.49411
       O    13.17603   10.90558   -0.26209
      H1    13.46513   10.01648   -0.47072
       H    19.00826    8.46449  -13.19931
       O    18.20316    8.15031  -13.65269
      H1    17.44937    8.04369  -12.98920
       H    16.82696   15.47330   -6.47260
       O    16.23390   15.00621   -7.16689
      H1    15.52288   14.66970   -6.65202
       H    18.41281   12.08752   -1.08863
       O    18.92819   12.20015   -1.86257
      H1    18.36607   12.68397   -2.52998
       H    15.57255    8.51028  -11.85840
       O    15.97405    7.71934  -12.13969
      H1    15.23652    7.15824  -12.41496
       H    12.53540    7.43609    0.17461
       O    12.78895    8.06823   -0.49308
      H1    13.60217    7.69489   -0.86147
       H    10.60409   12.07883   -7.68756
       O     9.68524   11.74217   -7.51740
      H1     9.37852   11.38337   -8.40390
       H    13.89576   10.18731  -13.35772
       O    13.16602   10.07650  -12.68883
      H1    12.71827   10.98992  -12.60260
       H    13.04642   14.68778   -5.22290
       O    13.81096   15.19584   -5.47418
      H1    13.49538   15.65532   -6.31166
       H    18.76880   10.67309   -2.51851
       O    18.61493    9.88700   -3.05109
      H1    18.55701   10.26818   -3.92462
       H    16.22124   15.75410   -3.27796
       O    15.22386   15.91740   -3.24648
      H1    14.82768   15.60667   -4.14917
       H    12.33573   16.60807   -7.88104
       O    13.05012   16.94197   -7.38681
      H1    13.74153   16.99669   -8.03643
       H    14.73433   12.05577  -10.33673
       O    14.20918   11.64531   -9.61493
      H1    14.38852   10.71438   -9.93704
       H    17.39742    8.33249   -7.74824
       O    17.79743    8.86309   -8.39172
      H1    18.63709    8.40021   -8.45797
       H    12.69126    9.57270   -6.55869
       O    12.23820    9.81711   -5.73188
      H1    12.16399   10.79162   -5.73790
       H    16.47982    4.61977  -10.13706
       O    16.71984    4.09174  -10.94367
      H1    16.82815    4.75941  -11.64275
       H    14.53652    9.60619   -5.03384
       O    15.29107   10.11032   -4.77324
      H1    15.18833   10.75408   -5.49957
       H    17.94757   14.63686   -9.83080
       O    18.07170   13.81015  -10.30799
      H1    18.95046   13.88560  -10.77161
       H    19.50066    6.55883   -3.98975
       O    18.67126    7.02470   -4.16489
      H1    18.68457    7.88206   -3.69280
       H    19.30540    6.42937   -9.93785
       O    18.82581    6.03795  -10.66953
      H1    18.36481    5.25860  -10.34226
       H    17.81257   19.09196   -6.36951
       O    17.77421   18.16113   -6.64388
      H1    18.30186   18.23013   -7.44405
       H    14.11149    7.86094   -3.76879
       O    14.87139    7.28305   -4.02696
      H1    15.52968    7.40977   -3.34003

