180
frame 2 | Written by MDAnalysis XYZWriter (release 2.4.3)
       H   -12.81161    7.46038   14.58465
       O   -12.00910    7.19067   15.02367
      H1   -11.60406    8.01588   15.43665
       H    -7.88604    1.54426    8.21512
       O    -7.63570    1.21637    9.09478
      H1    -8.30564    1.71903    9.58283
       H   -18.78430    3.45480   11.18524
       O   -18.41984    3.36771   10.28057
      H1   -17.48631    3.38339   10.55750
       H   -10.08824    7.78110   14.19738
       O    -9.51764    7.76686   13.44701
      H1    -8.58780    7.81146   13.80987
       H   -15.25616    8.41415   10.71279
       O   -15.94225    7.89062   11.14863
      H1   -16.18966    7.29268   10.45318
       H   -17.09720   -1.06055   11.72433
       O   -16.87401   -1.05780   12.67677
      H1   -17.33265   -0.27818   13.01248
       H   -11.91496   -2.07780   16.81943
       O   -12.43904   -1.22619   16.74347
      H1   -11.79677   -0.48906   16.84031
       H   -10.24203   -2.06130    8.39707
       O   -10.88031   -1.94968    7.59708
      H1   -10.75586   -2.76758    7.08227
       H   -18.21405    3.55649   16.31306
       O   -17.65759    2.92145   16.81522
      H1   -16.74273    3.23959   16.71285
       H   -13.89401    9.41300   12.89411
       O   -13.69728   10.32131   13.07897
      H1   -12.75113   10.32184   13.30707
       H   -10.95639    4.39792   14.26692
       O   -11.00169    5.04322   13.56000
      H1   -11.29845    5.84772   13.96543
       H   -10.05593    5.22504   18.81051
       O   -10.77559    5.10724   18.15082
      H1   -11.16951    4.19186   18.40740
       H   -10.52635    2.54944   16.31345
       O   -10.60996    3.43910   15.90067
      H1   -10.55772    4.01067   16.65695
       H   -13.23555   -0.29618   10.31055
       O   -12.82607   -0.58708    9.50727
      H1   -13.45912   -1.24934    9.16314
       H   -14.94967    8.19832   14.12327
       O   -14.52243    7.48611   13.61641
      H1   -15.07140    7.62965   12.74706
       H   -14.37699    2.97045   16.25085
       O   -14.99504    3.70891   16.08679
      H1   -14.69862    4.47525   16.60275
       H    -3.87634    2.95465   13.20296
       O    -4.56621    2.27858   13.55415
      H1    -4.03937    1.50187   13.74568
       H    -6.30950    3.57676   10.80656
       O    -5.71905    3.04096   10.23832
      H1    -6.39713    2.50122    9.77570
       H   -10.14218    5.20221    8.98456
       O    -9.56830    5.93080    9.16042
      H1    -9.39414    5.78113   10.17646
       H    -8.91500    2.98940   14.94754
       O    -8.26808    2.81886   14.24723
      H1    -7.78698    2.08699   14.71599
       H   -11.66712    3.21047    7.80731
       O   -11.18572    4.05923    7.80704
      H1   -10.66004    3.96294    7.03539
       H    -7.51145    2.78873    6.05783
       O    -8.05073    2.11756    6.52750
      H1    -8.29306    1.52142    5.80139
       H    -6.67288    7.34157   13.64252
       O    -6.95156    7.94626   14.33236
      H1    -7.22904    7.23994   14.99904
       H   -12.87989    0.62190    8.23118
       O   -12.86184    1.37369    7.65150
      H1   -12.68712    0.86932    6.84215
       H   -10.74457   10.08973   14.62096
       O   -10.89509   10.44908   13.71778
      H1   -10.43963    9.82425   13.14999
       H   -10.88716    1.06836   13.49212
       O   -10.69788    0.12579   13.75170
      H1    -9.93282   -0.04671   13.18170
       H   -10.25372    8.60656   11.56485
       O   -10.56757    9.47680   11.29608
      H1   -10.78233    9.49059   10.32728
       H   -17.56046    1.62559   15.36380
       O   -17.28646    1.20435   14.54062
      H1   -16.33313    1.05139   14.59248
       H   -17.76843    4.92745   14.76831
       O   -18.44918    5.14770   15.43433
      H1   -18.00648    5.69006   16.10529
       H    -9.22217    6.27685   12.50235
       O    -8.75317    5.78880   11.77310
      H1    -8.60686    4.92288   12.17916
       H   -14.24147   -0.75893   13.98888
       O   -14.47519   -1.10360   14.85640
      H1   -13.62796   -1.00431   15.29107
       H   -11.75668    0.29713    5.26090
       O   -12.39271   -0.23162    5.71232
      H1   -11.80220   -0.60943    6.39935
       H    -8.70298    2.48866   12.48222
       O    -8.61394    2.40847   11.50707
      H1    -9.55153    2.51565   11.30548
       H   -11.49006    6.53728    9.55138
       O   -12.39871    6.31816    9.42570
      H1   -12.39736    6.03730    8.41704
       H   -14.91564    4.49091   10.70398
       O   -15.69996    4.18626   11.13419
      H1   -15.63230    4.54580   12.05761
       H    -9.20427    0.80023   16.15888
       O   -10.14368    0.72802   16.39903
      H1   -10.37203    0.19727   15.60876
       H   -14.63895    1.99891    7.46149
       O   -15.55803    1.70304    7.58538
      H1   -16.08988    2.49604    7.32301
       H    -6.17276   -1.94521    9.20180
       O    -6.61469   -1.63392    8.41842
      H1    -7.15482   -0.83923    8.62047
       H    -9.21573   -1.23363   10.89387
       O    -9.29219   -1.28194    9.93218
      H1    -9.45594   -0.37097    9.71793
       H    -7.01153    5.80175    7.25298
       O    -7.20923    6.56510    7.80264
      H1    -8.03215    6.27709    8.19727
       H   -15.37555   -3.30188   12.86251
       O   -15.02746   -3.09199   11.98182
      H1   -14.10353   -3.38851   11.97281
       H    -5.33478    4.08577   14.39680
       O    -5.85364    4.38159   15.15742
      H1    -6.64058    3.88819   15.06115
       H    -5.73963    1.03055   11.99125
       O    -5.74067    0.15468   11.59227
      H1    -6.20884    0.45379   10.77324
       H   -15.16478    5.69137   13.74456
       O   -15.80451    4.92796   13.80224
      H1   -15.48857    4.46512   14.58329
       H   -16.81833    6.34529    7.53678
       O   -16.98242    5.65224    8.19851
      H1   -16.10385    5.25928    8.33494
       H   -13.67972    5.32923   18.62622
       O   -13.63202    5.59845   17.69172
      H1   -12.62648    5.46992   17.56281
       H   -16.51128    0.27371    9.41056
       O   -16.85258   -0.56230    9.62495
      H1   -16.28238   -1.23625    9.21880
       H   -12.04974   -2.64279   10.76381
       O   -12.13716   -3.55254   11.16087
      H1   -11.22686   -3.70964   11.25830
       H    -8.18387   -1.71947   13.19629
       O    -8.44387   -0.97820   12.62738
      H1    -7.72911   -0.32671   12.56534
       H    -7.56423    1.17798   18.68916
       O    -6.94005    1.65781   18.12575
      H1    -7.29037    2.59206   18.05700
       H   -13.50392    4.52042    7.49378
       O   -14.23846    4.31192    8.09922
      H1   -13.77224    3.77877    8.76376
       H   -13.53919    1.20576   11.68869
       O   -13.75222    1.97597   11.13824
      H1   -14.43089    2.41440   11.58652
       H    -5.71952    7.16268   11.69292
       O    -6.12087    6.38185   12.09195
      H1    -7.08318    6.40413   11.78932
       H   -12.37225    2.71100   12.06977
       O   -11.44303    2.89065   12.25134
      H1   -11.45171    3.87600   12.41080
       H    -6.98485    0.92805   16.44018
       O    -7.40735    0.64094   15.62880
      H1    -6.83216   -0.01202   15.23379
       H   -12.73703    1.91949   19.29905
       O   -12.00159    2.49281   19.07903
      H1   -11.23346    1.93630   19.34484
       H   -12.76507   -0.81914   12.44487
       O   -13.66317   -0.55123   12.24066
      H1   -14.18910   -1.33505   12.14329
       H    -8.00798    6.06450   17.02439
       O    -8.35971    6.66308   16.31458
      H1    -8.14008    7.59055   16.61261
       H   -12.90507    1.80870   17.45420
       O   -12.99285    1.82425   16.46479
      H1   -12.31255    2.50456   16.25579
       H   -14.03498    8.93200    8.99644
       O   -14.54308    8.13495    8.93601
      H1   -13.87907    7.48008    9.25448

