180
frame 3 | Written by MDAnalysis XYZWriter (release 2.4.3)
       H   -16.85436   -7.60427   -2.59148
       O   -16.65324   -7.06265   -3.42276
      H1   -16.32105   -7.77093   -3.97963
       H   -15.41608   -4.21119   -3.36495
       O   -15.39461   -3.47999   -2.74975
      H1   -14.95644   -3.91545   -1.98044
       H   -17.71141   -0.99104    5.30020
       O   -17.46537   -1.72340    5.80989
      H1   -17.90780   -1.54888    6.64119
       H   -12.75553   -7.56480   -1.57958
       O   -12.44113   -8.46569   -1.35344
      H1   -11.52569   -8.40783   -1.59972
       H   -16.77919   -6.56940    0.76367
       O   -16.29836   -6.11447    1.44228
      H1   -15.80694   -6.88328    1.84198
       H   -14.45479    1.26607    3.03156
       O   -14.32138    1.39585    4.00143
      H1   -14.03048    2.34167    3.97426
       H   -19.01732   -2.19089    1.08875
       O   -18.93538   -2.49609    0.14050
      H1   -19.82829   -2.49569   -0.16518
       H   -12.77413   -4.45838    0.03213
       O   -11.87871   -4.57343   -0.29366
      H1   -11.54028   -5.07278    0.48102
       H   -13.10131   -6.95547    4.53289
       O   -13.27796   -6.13763    3.98229
      H1   -14.24367   -6.07367    4.14726
       H   -18.54006   -3.14795    5.08686
       O   -18.89206   -4.00772    4.81542
      H1   -19.47059   -3.82777    4.05742
       H   -18.22006  -13.48649   -1.30304
       O   -17.50898  -13.39286   -0.61759
      H1   -18.11009  -13.50883    0.13699
       H   -12.21152   -6.75553    7.54689
       O   -11.26933   -6.93888    7.53428
      H1   -10.90536   -6.32382    6.85493
       H   -17.47806  -13.20172    6.81755
       O   -18.30354  -12.96049    7.28051
      H1   -18.20215  -12.03461    7.29606
       H    -9.24218   -7.85909    5.97637
       O    -9.75841   -7.86075    5.12822
      H1   -10.68082   -8.03439    5.45047
       H   -12.92038   -9.62451   -0.33275
       O   -13.27434  -10.34707    0.21772
      H1   -13.04038  -11.06628   -0.40523
       H   -19.31661   -7.35095    7.35579
       O   -18.38864   -7.45389    7.55638
      H1   -17.99212   -7.45654    6.67812
       H   -19.32428   -4.70592    6.64513
       O   -19.22556   -4.65068    7.58836
      H1   -19.08332   -3.71351    7.73937
       H   -19.22169   -5.21482    1.51252
       O   -19.79667   -5.73556    1.00660
      H1   -19.76762   -6.51739    1.57269
       H   -17.39030   -9.33433    5.01079
       O   -17.56904   -8.42762    5.24876
      H1   -18.41728   -8.22846    4.81941
       H   -18.10924  -10.31106    8.28155
       O   -17.59358  -10.27951    7.40661
      H1   -17.94178   -9.39574    7.09137
       H   -12.79994   -5.65159   10.39511
       O   -13.19483   -6.52523   10.51190
      H1   -13.74309   -6.71664    9.74547
       H   -15.58745   -8.60818    2.97550
       O   -15.07700   -8.66477    2.14000
      H1   -15.22828   -9.65749    2.06338
       H   -17.42581    0.88149    0.27787
       O   -16.89924    0.96327    1.09493
      H1   -16.50702    0.05153    1.02973
       H   -15.28917   -4.54662    0.35256
       O   -14.44844   -3.95894    0.27835
      H1   -14.87283   -3.13978    0.47287
       H   -12.22632   -1.13831    4.40322
       O   -12.48069   -0.83280    5.29112
      H1   -11.78970   -1.18617    5.85547
       H   -15.60990   -9.98809    7.41228
       O   -14.73496   -9.65998    7.62650
      H1   -14.68467   -9.72164    8.53853
       H   -14.41809  -13.24422    0.16376
       O   -14.48040  -12.94845   -0.72557
      H1   -15.37988  -12.61050   -0.76257
       H   -16.67691   -5.95747    4.73103
       O   -15.83007   -5.44387    4.67651
      H1   -15.89629   -4.95921    5.50474
       H   -14.40628   -0.70918    1.56651
       O   -15.10201   -1.35437    1.61655
      H1   -14.72936   -1.86696    2.38528
       H   -18.72585  -10.81517    0.82556
       O   -17.93840  -10.68796    0.25460
      H1   -17.84463  -11.58679   -0.05107
       H   -14.78833  -10.93952    0.96366
       O   -15.53062  -11.10876    1.58610
      H1   -16.29470  -11.05913    0.93165
       H   -14.73437   -7.63659    7.64812
       O   -14.03017   -7.03903    7.82153
      H1   -14.30098   -6.25664    7.27454
       H   -18.27043   -5.25525    3.84705
       O   -18.10878   -5.98645    3.27244
      H1   -17.21687   -5.89947    2.84263
       H   -17.56470   -1.98605   -0.84383
       O   -17.16158   -1.54701   -1.63559
      H1   -16.39776   -2.13001   -1.81704
       H   -19.99031    0.28344    4.50274
       O   -19.57800    0.54863    3.67515
      H1   -18.72111    0.87083    3.97613
       H   -15.23683  -13.46370    6.22644
       O   -15.99537  -13.73102    5.71806
      H1   -15.99987  -12.96206    5.14653
       H   -10.49426   -8.90039    2.19430
       O   -11.39124   -8.62842    2.03719
      H1   -11.61526   -8.98710    1.16402
       H   -13.75514   -4.13388    5.95890
       O   -13.22534   -4.86515    6.20590
      H1   -13.10054   -5.23372    5.32989
       H   -12.17807   -2.44251    2.80579
       O   -11.46697   -1.71601    2.75370
      H1   -11.86024   -1.14070    2.10445
       H   -18.81384   -8.00351   -1.09800
       O   -17.95225   -7.86579   -0.65907
      H1   -17.86308   -8.78418   -0.34040
       H   -11.44952   -6.92353    1.72747
       O   -11.59334   -5.99672    1.92520
      H1   -12.25676   -6.12577    2.63105
       H   -16.08557  -11.18177    3.40577
       O   -15.83988  -10.98522    4.37679
      H1   -14.89932  -11.06601    4.21365
       H   -18.80900   -5.13576   -2.13934
       O   -19.69462   -5.51156   -1.87125
      H1   -19.53166   -5.56947   -0.91621
       H   -18.56903    0.95307    9.57154
       O   -19.01736    0.37389    8.93028
      H1   -18.50030   -0.45434    9.01486
       H   -14.48645   -2.77084    9.09363
       O   -14.40533   -1.89990    8.65235
      H1   -14.54072   -2.17385    7.72719
       H   -13.87078   -5.75822   -3.23048
       O   -13.42680   -6.18713   -2.44879
      H1   -12.98722   -5.37689   -2.12528
       H   -18.22941  -13.52779    4.22287
       O   -18.36620  -12.53473    3.98077
      H1   -18.91404  -12.28344    4.70680
       H   -12.69690   -8.85793    6.11728
       O   -12.59591   -8.42163    5.25087
      H1   -12.49998   -9.18713    4.62963
       H   -12.25197  -11.02297    3.14872
       O   -13.03214  -10.45897    3.28949
      H1   -13.09284   -9.84937    2.53006
       H   -14.20328   -2.90437    4.01912
       O   -13.82391   -3.07471    3.13072
      H1   -14.15320   -3.89426    2.86652
       H   -19.81191   -2.65045    9.20212
       O   -18.96156   -2.29268    8.86970
      H1   -18.35107   -2.68246    9.60881
       H   -13.21950  -10.57736    7.27868
       O   -12.34574  -10.92824    7.37664
      H1   -11.80513  -10.41167    7.99976
       H   -16.31683   -4.82387   11.49920
       O   -15.84241   -5.45290   10.91882
      H1   -14.84124   -5.34215   11.10521
       H    -9.97821   -5.59423    3.22572
       O    -9.22246   -5.41848    3.79505
      H1    -9.20558   -6.32449    4.20053
       H   -15.70431   -1.80376    5.75532
       O   -14.77025   -2.14142    5.69381
      H1   -14.13376   -1.41987    5.49967
       H   -17.42189   -5.71436   -3.53133
       O   -17.79025   -4.83429   -3.59653
      H1   -17.08518   -4.27508   -3.27966
       H   -16.55161   -5.52336    8.58940
       O   -16.49938   -5.09786    7.72969
      H1   -17.48518   -5.10594    7.49757
       H   -18.76282   -0.14743   -1.26988
       O   -18.76294    0.77163   -0.93960
      H1   -19.69074    1.02914   -0.84710
       H   -16.84959   -7.04371   10.41196
       O   -17.71720   -7.45191   10.32301
      H1   -17.95423   -7.27806    9.36756
       H   -16.48346    0.86834    4.34261
       O   -17.18154    0.91894    4.98081
      H1   -16.71698    0.95351    5.89333

