180
frame 1 | Written by MDAnalysis XYZWriter (release 2.4.3)
       H   -11.51582  -19.12224   -8.15629
       O   -11.87379  -18.99909   -9.05074
      H1   -11.64219  -19.89615   -9.38488
       H   -13.45837  -18.13340   -6.24218
       O   -13.95981  -17.42693   -5.70591
      H1   -13.29452  -17.13243   -4.99235
       H    -6.18196  -15.05030   -2.22056
       O    -5.41657  -15.36010   -2.78929
      H1    -4.75012  -14.79249   -2.44222
       H    -5.44075  -13.41953  -14.80779
       O    -5.84751  -13.48399  -13.89655
      H1    -6.66362  -13.01861  -14.01501
       H    -3.58818  -16.43761   -6.00838
       O    -3.52759  -15.46416   -5.93326
      H1    -3.23789  -15.33619   -5.02579
       H    -1.75421  -15.27347  -10.45041
       O    -1.99616  -14.93130  -11.31067
      H1    -2.72125  -14.32986  -11.13989
       H   -14.59620  -13.12053   -8.57003
       O   -15.45025  -13.09797   -8.09689
      H1   -15.45185  -14.08046   -7.95800
       H   -12.36145  -14.82606  -13.78291
       O   -12.09486  -15.39484  -14.50328
      H1   -12.49333  -16.23343  -14.24499
       H    -8.77801  -12.07829  -14.68130
       O    -8.33954  -12.86688  -15.01913
      H1    -7.81526  -12.46976  -15.70386
       H    -2.35125  -16.09671  -14.38800
       O    -1.40912  -16.02371  -14.76652
      H1    -0.75876  -16.27212  -14.06718
       H   -12.75671  -12.46270   -8.93167
       O   -12.99182  -13.39583   -9.20693
      H1   -12.28593  -13.94264   -8.81470
       H   -11.33722  -13.54866   -3.40380
       O   -11.53977  -14.18141   -4.05402
      H1   -10.79206  -14.80158   -3.95701
       H    -7.21766  -18.55874  -11.53117
       O    -6.41245  -18.66530  -11.02455
      H1    -5.93673  -17.82507  -11.02550
       H    -7.88964  -14.29613   -0.71180
       O    -8.01154  -15.09929   -1.26532
      H1    -8.35062  -15.69595   -0.54669
       H    -4.84581  -17.78284   -1.29661
       O    -4.80199  -18.65903   -1.77992
      H1    -5.56250  -18.47750   -2.43700
       H   -10.67603  -17.60822   -9.75484
       O    -9.78685  -17.19543   -9.84742
      H1    -9.96592  -16.26077   -9.46319
       H    -6.20744  -18.62308  -15.38800
       O    -5.27867  -18.55590  -15.59510
      H1    -4.98448  -18.08267  -14.78537
       H    -9.23723   -9.65039   -8.45029
       O    -9.74987   -9.92036   -7.67925
      H1    -9.17426  -10.69083   -7.42304
       H   -13.66115  -18.11986  -14.76835
       O   -12.99201  -17.89562  -14.18625
      H1   -13.36976  -17.56629  -13.30054
       H    -6.54356  -14.14025   -8.40599
       O    -7.41142  -13.86692   -8.73554
      H1    -7.43909  -12.96583   -8.41756
       H    -7.58391  -12.65415   -4.73288
       O    -6.87636  -12.12129   -5.08934
      H1    -7.16082  -11.20208   -4.90306
       H    -8.49947  -14.24247   -7.34098
       O    -9.26480  -14.44471   -6.81244
      H1    -9.66912  -13.60827   -6.59356
       H    -4.27622  -15.51765  -13.67930
       O    -4.17460  -16.41563  -13.98090
      H1    -3.92210  -16.95187  -13.22643
       H    -7.76061  -18.22921   -3.13635
       O    -6.88769  -18.61625   -3.45972
      H1    -6.78319  -18.07801   -4.28797
       H   -10.10232  -12.66981  -13.14825
       O   -10.58754  -11.90616  -13.54745
      H1   -10.59794  -11.23567  -12.86634
       H    -8.46449  -15.04048   -3.21034
       O    -9.17157  -15.36832   -3.80971
      H1    -8.83346  -14.91581   -4.61261
       H   -12.81463  -10.93699   -7.46332
       O   -12.21602  -10.97582   -8.25596
      H1   -11.37091  -10.53367   -8.08078
       H    -5.36996  -11.37110   -9.84501
       O    -5.54096  -10.53544   -9.23632
      H1    -5.74867   -9.83926   -9.83602
       H    -6.85142  -11.10919   -8.22190
       O    -7.61420  -11.46244   -7.73289
      H1    -7.12570  -11.72366   -6.95008
       H    -5.14985  -13.26763  -11.39182
       O    -4.52287  -12.92003  -10.66754
      H1    -3.99235  -12.18525  -11.11220
       H   -11.15725  -12.86087   -5.51299
       O   -10.48708  -12.29917   -5.92512
      H1   -11.02118  -11.87034   -6.58018
       H    -6.75398  -15.95145  -13.71058
       O    -6.87563  -16.35977  -12.84392
      H1    -7.75544  -16.75595  -13.01487
       H    -6.78634  -14.75659  -11.85512
       O    -7.00984  -13.86434  -11.54653
      H1    -7.23469  -13.99281  -10.59890
       H    -0.45925  -17.31562   -9.86761
       O    -0.91763  -17.16393   -9.00687
      H1    -0.23953  -16.61323   -8.51546
       H   -13.10177  -13.71424  -11.13012
       O   -13.07972  -14.01171  -12.08796
      H1   -13.55693  -14.81855  -12.06342
       H    -8.68332  -17.94058   -8.95156
       O    -7.97749  -18.53283   -8.63266
      H1    -7.37791  -18.47194   -9.43404
       H    -3.04383  -12.44261   -6.71051
       O    -2.46490  -12.95425   -7.27150
      H1    -3.04218  -13.75281   -7.36493
       H    -9.74542  -19.19563  -17.39406
       O   -10.22948  -19.05770  -16.60933
      H1   -10.39294  -18.09437  -16.60141
       H    -7.72404  -10.95023  -12.30724
       O    -7.98981  -11.40296  -11.51692
      H1    -7.64769  -12.30524  -11.63090
       H   -11.03985  -12.46770  -10.58338
       O   -10.14296  -12.78569  -10.46583
      H1    -9.57823  -12.02959  -10.65336
       H    -5.03566  -11.77159   -4.92217
       O    -4.18015  -11.29473   -5.01135
      H1    -4.41970  -10.39077   -5.31293
       H    -4.09915  -18.89017   -5.18924
       O    -4.43139  -18.33451   -5.96478
      H1    -5.45281  -18.26828   -5.83892
       H   -14.71582  -16.70457  -11.66865
       O   -13.76636  -16.81231  -11.74592
      H1   -13.64072  -17.37294  -10.98601
       H   -13.42279  -18.32057   -3.33581
       O   -13.73642  -19.06614   -2.81253
      H1   -14.63702  -19.22970   -3.17813
       H    -0.69234  -15.14109   -5.63216
       O    -0.49548  -14.71578   -6.49601
      H1    -1.28483  -14.19432   -6.69946
       H    -9.52244  -17.81004  -13.17494
       O    -9.34847  -18.48196  -12.50391
      H1    -9.61175  -18.01220  -11.70124
       H    -7.26733  -17.93759   -7.18759
       O    -7.07309  -17.73218   -6.28179
      H1    -7.21730  -16.79441   -6.18594
       H    -4.73744  -15.69692   -8.64633
       O    -4.79342  -14.70920   -8.48668
      H1    -4.51754  -14.38945   -9.31186
       H    -3.65482  -17.76524  -10.15128
       O    -3.71340  -17.01848   -9.55781
      H1    -2.79935  -16.95281   -9.28219
       H   -14.80343  -16.27654   -7.32141
       O   -15.50799  -15.88546   -7.82907
      H1   -15.56035  -16.47922   -8.57988
       H     0.01781  -18.82782   -8.39847
       O     0.51581  -19.27191   -7.68970
      H1     0.93686  -20.05536   -8.13371
       H    -1.59016  -18.99827   -3.36400
       O    -0.68538  -18.63451   -3.39919
      H1    -0.34968  -18.92807   -4.25647
       H   -16.91275  -17.83890   -4.66523
       O   -16.82283  -17.42916   -5.51820
      H1   -15.86295  -17.22898   -5.55813
       H   -10.49651  -14.99567   -7.93361
       O   -10.89011  -15.09045   -8.82761
      H1   -10.29125  -14.47634   -9.27992
       H    -9.14344  -16.28895  -15.53755
       O    -9.60138  -16.59186  -14.76244
      H1   -10.37563  -16.09447  -14.80729
       H    -5.67687  -15.12811   -6.06134
       O    -6.46282  -15.27124   -5.48598
      H1    -6.05627  -15.10030   -4.62909
       H   -12.02680  -15.83726   -3.76262
       O   -12.24101  -16.75600   -3.54669
      H1   -11.40055  -17.18612   -3.28561
       H    -9.00307  -19.81932   -5.19089
       O    -9.51579  -18.99474   -5.24681
      H1    -8.90454  -18.46582   -5.71413
       H    -9.55936  -18.48756   -3.61904
       O    -9.51271  -18.11833   -2.73109
      H1    -9.23224  -17.23027   -2.92200
       H    -3.34115  -19.24940  -12.50930
       O    -3.14627  -18.28724  -12.40171
      H1    -2.20825  -18.37245  -12.61246

