180
frame 8 | Written by MDAnalysis XYZWriter (release 2.4.3)
       H     9.03386    8.24152    1.00662
       O     9.30440    8.15591    1.96044
      H1     9.37817    9.11390    2.17907
       H    17.72432    4.93037    4.66440
       O    17.20188    5.41935    3.99467
      H1    16.65986    4.62545    3.78466
       H    17.35795   12.66299    3.34689
       O    17.25064   13.50876    3.77187
      H1    16.63682   13.22663    4.46173
       H    12.62771   14.79020   -0.85204
       O    12.06410   15.29346   -0.26192
      H1    12.15770   16.22569   -0.55816
       H    14.88962   11.94483    5.22794
       O    15.17466   12.87805    5.18840
      H1    14.56273   13.31485    4.57718
       H    18.79307   11.70856    1.35269
       O    18.83822   10.98834    0.63547
      H1    19.18318   10.25505    1.08960
       H    16.96999    7.85596    6.01026
       O    16.31635    8.00666    5.30229
      H1    16.36578    7.12795    4.92512
       H    10.11642    9.55585    5.27987
       O    10.60057    8.66128    5.30116
      H1    10.08482    8.14063    5.85051
       H    14.63767    1.49594   -0.01239
       O    15.09591    1.44030    0.86066
      H1    15.51529    0.55619    0.70496
       H    16.02277   10.25473   -2.55385
       O    16.81656    9.70606   -2.45449
      H1    17.42940   10.02691   -3.10274
       H    16.44913   14.03183    1.23685
       O    16.64361   14.88352    1.61723
      H1    17.04386   14.62993    2.44360
       H    13.24295    7.04232   -6.02674
       O    12.61405    7.57893   -5.51322
      H1    13.18415    8.23528   -5.15635
       H     9.43371   11.75049    1.58076
       O     8.58319   11.61234    1.16083
      H1     8.23451   12.49343    1.04328
       H    17.20767    8.03043   -1.44356
       O    17.36135    7.08895   -1.31683
      H1    17.43525    7.02230   -0.32660
       H    17.66902    7.56584    1.91413
       O    16.97471    6.95383    1.66722
      H1    16.93416    6.43005    2.48974
       H    15.48738    8.92217   -5.80110
       O    14.81740    9.63745   -5.76789
      H1    14.67259    9.86039   -4.80838
       H    14.99868    2.67518   -1.69017
       O    14.02986    2.62168   -1.66437
      H1    13.70175    3.48982   -1.44768
       H    13.97603   15.10341   -2.63740
       O    13.43418   14.27663   -2.41626
      H1    12.62860   14.27554   -2.95894
       H    11.34465    5.96504   -4.61686
       O    10.66307    5.34098   -4.99365
      H1    11.05640    4.53635   -4.73379
       H    11.28475   11.48188   -1.77582
       O    12.17125   11.62057   -2.16398
      H1    12.62886   12.04128   -1.40689
       H    15.69621   11.47996    0.66562
       O    16.18336   12.17230    0.25481
      H1    17.09907   11.75727    0.34523
       H    13.34604   10.27890   -2.64562
       O    13.83323    9.58210   -3.08651
      H1    14.36836    9.08937   -2.52066
       H    13.46971    6.52188    2.93620
       O    13.95124    6.70251    3.74749
      H1    14.65698    7.30828    3.41961
       H    14.78832    5.44380   -7.35843
       O    14.24035    6.27752   -7.36797
      H1    14.99886    6.86229   -7.49540
       H    15.53163   12.38173   -1.67220
       O    15.41855   12.14760   -2.58399
      H1    14.65927   12.67097   -2.76898
       H    12.21123    8.29824   -7.07177
       O    11.81214    8.51360   -7.91823
      H1    11.37975    7.72594   -8.27490
       H    10.46454   14.46188   -3.94153
       O    11.11673   13.73723   -3.87307
      H1    10.84741   13.31594   -3.02856
       H    15.52038    2.00178    2.57397
       O    15.49492    2.40263    3.44437
      H1    15.03539    1.85064    4.09094
       H    15.77858    8.17105    2.25071
       O    14.99041    8.78768    2.14694
      H1    14.74132    8.76791    1.21483
       H    11.94589    3.91482   -0.26849
       O    11.74816    4.62029    0.41435
      H1    11.92945    4.04281    1.18969
       H    10.32841    3.78697   -2.44222
       O    11.24460    3.44176   -2.61910
      H1    11.16480    3.29177   -3.53174
       H    11.01979    5.44884    3.86751
       O    11.21612    4.60539    3.44946
      H1    11.80693    4.09187    4.05865
       H     7.73208    6.82616   -1.69818
       O     6.95795    6.26897   -1.93469
      H1     7.33931    5.52387   -2.41603
       H    17.64854   13.07792   -4.67276
       O    17.69120   12.87089   -3.67646
      H1    16.71676   12.67861   -3.49735
       H    11.50306   12.88441    2.51813
       O    11.25666   11.97247    2.35260
      H1    11.95266   11.34277    2.64830
       H    15.21163    3.19513   -5.29990
       O    15.31288    2.70031   -4.46684
      H1    14.56800    2.86397   -3.87663
       H    14.71291    3.85106    2.35125
       O    14.71285    4.75344    2.01173
      H1    14.49411    5.28375    2.76767
       H    13.59413   10.17130    4.78768
       O    14.30410   10.27619    5.47730
      H1    14.75014    9.45943    5.29721
       H    16.45246    3.11492   -2.83181
       O    17.40487    2.94831   -2.59525
      H1    17.77761    2.89997   -3.52095
       H    10.03740    4.42067   -0.14532
       O     9.23547    4.29351   -0.65707
      H1     8.73151    5.03349   -0.44536
       H     8.97341   11.74309   -0.53776
       O     9.62181   11.91525   -1.23122
      H1     9.14057   11.97226   -2.04743
       H    19.68057    3.56915    1.93501
       O    19.64577    4.51609    2.26815
      H1    18.91051    4.37422    2.90015
       H    12.09712    6.52975    1.37319
       O    12.07513    7.47302    1.13568
      H1    11.18983    7.78890    1.27092
       H    15.68496    6.07766   -0.98328
       O    14.80929    5.94823   -0.59533
      H1    15.04878    5.54486    0.29791
       H    10.47494    7.99471   -3.42990
       O    11.03079    8.24417   -2.66323
      H1    11.58807    8.93063   -2.97972
       H    12.43532   11.57130    1.17929
       O    13.12242   11.62996    0.52459
      H1    13.27334   10.66589    0.27902
       H    10.64730    2.04316    1.47646
       O    11.24207    1.63372    0.80985
      H1    11.88796    1.25603    1.43199
       H    12.16256    8.08648    6.13388
       O    12.83839    7.45662    6.24111
      H1    13.31768    7.39872    5.41781
       H     9.81568    8.20359   -5.51044
       O     9.26190    7.70332   -4.83951
      H1     9.43997    6.76802   -4.90371
       H    11.98620    8.98539    3.79453
       O    12.50877    9.70188    3.47651
      H1    13.35165    9.29492    3.17123
       H    19.47503   11.16391   -1.48594
       O    19.65344   11.78926   -2.17303
      H1    18.78317   12.04335   -2.49400
       H     9.47032    8.60441   -1.28723
       O     8.61653    8.39787   -0.80533
      H1     8.08221    9.10507   -1.19296
       H    13.29176    8.59639    0.35589
       O    14.02972    8.80726   -0.30245
      H1    14.34332    7.95070   -0.54560
       H    19.36666   10.32011   -3.41425
       O    19.00751    9.55488   -3.90337
      H1    19.12250    9.88569   -4.82986
       H    11.07153    9.71288   -6.34196
       O    10.27196   10.09700   -5.99930
      H1    10.11405   10.75276   -6.73048
       H    12.56426   12.86037   -4.44155
       O    13.35618   12.63656   -4.89083
      H1    12.93061   12.11834   -5.60199
       H    18.81999    7.02112   -2.15276
       O    19.67428    7.21935   -2.60597
      H1    19.29342    7.92466   -3.18454
       H    17.37707    8.18993   -4.25619
       O    16.96440    7.64159   -4.96101
      H1    16.82813    6.84677   -4.48929
       H    17.33229    9.14979    4.27854
       O    17.84105    9.41648    3.48326
      H1    18.77955    9.39122    3.78836
       H    18.62005    1.73429    0.31065
       O    18.26160    1.44604   -0.54096
      H1    18.00367    2.27377   -0.97714

