180
frame 4 | Written by MDAnalysis XYZWriter (release 2.4.3)
       H     8.12024    1.58103   -2.30570
       O     7.68576    1.17931   -3.05402
      H1     8.29352    0.49200   -3.30115
       H     5.37426    0.41657   -4.28150
       O     5.49257    0.41707   -5.25167
      H1     5.86177   -0.47871   -5.42474
       H     6.33829    3.72692   -4.83740
       O     6.79590    3.77127   -3.94673
      H1     6.73326    2.85072   -3.62361
       H     5.13655    8.01107   -3.59466
       O     4.89433    7.57887   -4.48850
      H1     4.48053    8.33068   -4.94487
       H    14.13344    2.46462   -0.55508
       O    14.43175    1.59830   -0.19953
      H1    15.40685    1.70320   -0.37805
       H    13.44244    2.05029   -7.08505
       O    12.98025    1.20975   -6.99660
      H1    13.11180    0.80174   -7.85291
       H    13.57493    7.36133   -5.10390
       O    12.75609    7.67973   -4.67679
      H1    13.24535    8.34071   -4.07602
       H    14.02168    4.79819   -1.05219
       O    13.62099    4.09136   -1.60662
      H1    12.68637    4.19631   -1.48988
       H     8.75410    4.15260   -4.39535
       O     9.63888    4.20255   -4.77433
      H1     9.63514    3.51275   -5.47603
       H    11.43063    5.75114   -7.08261
       O    12.07269    5.89370   -7.76925
      H1    12.77099    5.31218   -7.43726
       H    14.81184    4.62070   -4.94406
       O    14.75136    3.83446   -4.40696
      H1    14.42307    4.16571   -3.54510
       H    11.23908    7.06054   -4.58329
       O    10.30149    6.84948   -4.64979
      H1    10.25064    5.84863   -4.68497
       H     5.90798    5.59531    0.73826
       O     6.19987    4.88344    1.34641
      H1     5.35031    4.63219    1.75894
       H     6.25484    7.33285   -6.71210
       O     5.98830    7.63834   -7.59943
      H1     6.26290    6.88087   -8.12602
       H    12.35676    0.57312   -0.73150
       O    11.62076    0.69070   -0.06756
      H1    11.87735    1.57512    0.30545
       H    11.53246    2.09533  -10.33642
       O    11.73034    2.77593  -10.98164
      H1    12.36961    3.37257  -10.57103
       H    10.39717   -0.47017  -10.28883
       O    10.50358    0.31919   -9.76347
      H1     9.84235    0.94734  -10.10385
       H     6.14607    1.74793   -0.32008
       O     6.03256    2.29964   -1.09033
      H1     6.06895    1.62300   -1.77742
       H    15.26147    5.19997   -6.72048
       O    14.81240    6.02958   -6.59302
      H1    15.48831    6.63384   -6.88513
       H    12.26598    8.37957   -6.30558
       O    12.28822    8.54824   -7.26066
      H1    12.13379    7.62301   -7.60195
       H     4.14862    6.11854   -2.89503
       O     4.14735    5.92356   -1.94503
      H1     5.05515    5.96469   -1.62387
       H     9.77963    5.02724    0.03441
       O    10.53771    5.66636    0.18852
      H1    11.18087    4.90854    0.22923
       H    10.16552    2.76726   -1.73815
       O    10.80041    2.68253   -2.49439
      H1    10.35094    3.23611   -3.15764
       H     4.68355   10.69938   -7.42225
       O     5.57785   10.60526   -6.95511
      H1     5.75491    9.67295   -7.20214
       H     9.97985    1.37152   -0.41504
       O     9.09594    1.53349   -0.78818
      H1     8.91129    2.45570   -0.39851
       H     6.91854    7.29599   -0.28939
       O     6.64481    6.55284   -0.83075
      H1     7.30646    5.89715   -0.64943
       H     3.62585    0.05370   -3.69387
       O     4.11469    0.42456   -2.93588
      H1     3.61331    1.17850   -2.72921
       H    10.31409   -1.20730    0.15411
       O    10.32709   -1.67943    1.03639
      H1    10.87690   -1.06408    1.55189
       H    11.43916    0.98005   -6.25936
       O    10.51107    1.18184   -5.93429
      H1     9.97481    0.87312   -6.68698
       H     7.94698    3.93988    0.57079
       O     8.29525    3.98676   -0.39253
      H1     7.47589    3.77222   -0.88705
       H     9.89082   10.64154   -5.63487
       O     9.69013   10.79590   -4.63985
      H1     8.88733   11.27384   -4.74548
       H     8.00581    4.76169   -8.78752
       O     7.86241    5.71414   -8.97944
      H1     8.73381    5.89251   -9.37756
       H    10.50217    6.72810    1.69391
       O    10.21590    6.96999    2.59364
      H1     9.80546    7.86194    2.47066
       H     5.57618    2.32190   -5.98087
       O     5.85842    3.18797   -6.30359
      H1     5.07615    3.76788   -6.32280
       H     9.72713    7.77338   -9.67900
       O    10.15580    6.93201   -9.97617
      H1    10.06791    7.00571  -10.95278
       H     9.76849    9.18181   -2.16524
       O    10.18189    9.46258   -1.36849
      H1    10.68799   10.29811   -1.52130
       H    10.76704   -1.59121   -2.58772
       O    10.90841   -2.38376   -2.08034
      H1    11.48370   -2.84654   -2.68397
       H     7.17170   -2.59503   -4.88363
       O     6.97608   -2.56896   -3.88062
      H1     7.78030   -2.91051   -3.55330
       H    12.57819   -2.06222   -4.02870
       O    12.26331   -2.86768   -4.41867
      H1    11.57082   -2.59212   -5.04901
       H    10.82114    3.59245    1.47503
       O    11.60046    3.42511    0.91869
      H1    12.31996    3.68874    1.48527
       H    11.36723   -2.94700   -7.29316
       O    10.52027   -2.80369   -6.78820
      H1    10.20355   -1.87788   -6.99704
       H     9.11770    9.32171   -3.83331
       O     8.66357    8.69284   -3.19482
      H1     8.94523    7.86191   -3.59680
       H     7.02816    8.90013   -2.80449
       O     6.12763    9.12471   -2.48165
      H1     6.30666    9.76222   -1.75988
       H     7.71065    8.77688   -8.53340
       O     8.46349    9.00385   -9.11491
      H1     9.06333    9.40748   -8.51358
       H    13.39496   -0.10454   -5.17719
       O    13.19492   -0.26664   -4.22337
      H1    12.41940    0.29886   -4.11729
       H     8.09984    2.07158  -10.41713
       O     8.18254    1.47571  -11.17696
      H1     7.43036    0.87589  -11.15426
       H     8.36332    9.44347   -0.52909
       O     7.63691    9.30061    0.06984
      H1     7.26133   10.20304    0.04960
       H     5.53819    6.58229  -11.57458
       O     5.73983    5.72872  -11.08824
      H1     6.64431    5.91651  -10.71888
       H     4.33883    8.95436   -1.06629
       O     3.58886    8.30886   -1.02751
      H1     4.01960    7.47800   -1.35133
       H    11.68768    8.72522   -0.93682
       O    12.59633    8.65381   -0.63850
      H1    12.83358    7.72077   -0.66383
       H     8.78945    3.38279    3.29186
       O     9.28726    2.92749    2.56444
      H1     8.64586    2.29589    2.33081
       H    12.72357    5.48059   -9.76463
       O    13.19275    5.01737  -10.46542
      H1    13.14908    5.57086  -11.25815
       H     3.67874    3.92213   -1.69654
       O     3.49054    2.97340   -1.35735
      H1     4.44517    2.76227   -1.12614
       H    10.37928    1.00988   -3.02288
       O    10.29787    0.22626   -3.54235
      H1    10.26408    0.69100   -4.43757
       H    11.07682    9.94538   -7.34832
       O    10.24983   10.40416   -7.31643
      H1    10.57581   11.33951   -7.10756
       H    13.96049    4.14625   -9.03425
       O    14.34845    3.69684   -8.25178
      H1    15.19444    3.35770   -8.62963
       H     6.48234    0.66392    1.36855
       O     6.59900    0.21103    0.52924
      H1     7.54019    0.15535    0.48417
       H     7.00245    2.68072   -8.02661
       O     7.19239    3.01089   -8.88271
      H1     6.28790    3.09741   -9.27184
       H     9.10560   -0.27193   -8.55681
       O     8.80761   -0.56422   -7.68617
      H1     7.87009   -0.51024   -7.73641
       H     2.47391    5.39327   -6.80374
       O     3.28368    5.07756   -7.24864
      H1     2.92384    4.83446   -8.11352

