180
frame 5 | Written by MDAnalysis XYZWriter (release 2.4.3)
       H     8.84468   -1.81453   -1.17349
       O     8.45186   -2.24622   -1.93012
      H1     9.05374   -3.03673   -2.01507
       H     6.32960   -1.96411    3.01429
       O     6.04506   -1.33869    2.38166
      H1     6.64623   -0.53397    2.39571
       H     4.29245   -7.65118    3.83452
       O     4.69807   -6.93563    3.33410
      H1     4.06488   -6.91305    2.59490
       H     6.21622   -1.64950   -3.42190
       O     5.79018   -2.27255   -4.01856
      H1     5.71965   -3.07067   -3.44767
       H    11.75171   -2.23814   -0.19819
       O    11.84560   -2.27571   -1.20366
      H1    12.75543   -2.67070   -1.39786
       H     6.58253    3.28688    4.92959
       O     7.28173    2.67863    4.60366
      H1     7.62890    2.21401    5.38593
       H     4.73814   -6.35849    5.32105
       O     4.71577   -5.79238    6.14758
      H1     4.66340   -4.84019    5.85562
       H     6.72574   -2.47790    1.00411
       O     6.82376   -3.10244    0.30066
      H1     7.22884   -2.65459   -0.46478
       H     6.40310   -5.97726    7.04817
       O     7.03677   -6.21405    7.76863
      H1     7.69573   -6.88546    7.37607
       H     1.05784   -5.88089    2.46770
       O     0.32561   -6.40204    2.84252
      H1     0.34138   -6.30910    3.80597
       H     4.72815   -2.58577    8.40008
       O     5.14912   -2.33977    9.24332
      H1     4.70765   -1.45497    9.42934
       H     1.47512    1.59335   -0.91072
       O     1.85277    1.70077   -0.04078
      H1     2.78450    1.40977   -0.04920
       H     3.27273   -2.10147    6.71789
       O     3.60415   -3.00196    6.83398
      H1     2.90794   -3.50588    7.30210
       H     5.88368   -5.72398    2.84022
       O     6.64227   -5.19693    2.59396
      H1     6.39394   -4.77111    1.77890
       H     9.92310   -3.77453    5.67129
       O    10.61083   -3.32101    5.14495
      H1    10.80410   -3.87712    4.35724
       H    11.71365   -3.58528    6.61820
       O    12.37866   -3.73765    7.29734
      H1    13.11917   -3.73596    6.75634
       H     4.67224    0.04223    4.40378
       O     3.80158    0.21122    4.76808
      H1     3.91959    1.08869    5.09121
       H     0.31328   -3.10389    2.83931
       O     0.96054   -2.80762    3.45849
      H1     0.49771   -2.25318    4.17687
       H     5.48265   -8.70333    2.82825
       O     5.86856   -9.55761    2.57119
      H1     6.81123   -9.45927    2.56840
       H     2.13009   -2.51212   -1.06687
       O     2.66362   -3.01971   -1.74186
      H1     2.39932   -2.81586   -2.66619
       H     1.58727   -4.42704   -1.12717
       O     1.07251   -5.19304   -0.87741
      H1     0.69866   -5.46636   -1.71725
       H     3.77591   -3.40121    5.04584
       O     4.25286   -3.44155    4.17962
      H1     3.72880   -3.96951    3.52583
       H    10.15320   -1.75174    4.87761
       O     9.65968   -0.91573    4.95838
      H1     8.74347   -1.22190    4.89760
       H     2.69930   -4.04401    1.60075
       O     2.55534   -4.65845    2.37464
      H1     2.08354   -4.10544    2.98320
       H     5.17458    2.73456    0.19686
       O     5.83897    3.11520   -0.39173
      H1     5.35327    3.76380   -0.99683
       H     6.47673    0.64237   -2.44873
       O     5.71135    0.02041   -2.54261
      H1     5.50113   -0.28931   -1.69757
       H    11.01892   -7.33300    4.28330
       O    10.03406   -7.40824    4.21885
      H1     9.94301   -7.09911    3.30947
       H     6.93885   -3.60248    9.37070
       O     7.73803   -3.99399    9.17064
      H1     7.64519   -4.86778    8.77655
       H    11.81422   -1.64668    2.03013
       O    11.16394   -2.02434    1.46457
      H1    11.03711   -2.94314    1.73319
       H     2.86730   -0.19109    3.22323
       O     2.21940   -0.50470    2.58318
      H1     1.96216   -1.32158    2.98890
       H     6.98511    0.18831    6.48604
       O     7.19423    0.96683    7.02662
      H1     7.67975    0.58502    7.77288
       H     7.19433    1.49824    1.51503
       O     6.42971    1.39776    2.00973
      H1     6.60014    1.86406    2.80401
       H    10.44882    1.08751   -1.56944
       O     9.74757    1.68865   -1.25585
      H1     9.04125    1.62983   -1.90654
       H    11.29453   -4.69390    1.81793
       O    10.75345   -4.50916    2.64074
      H1    10.03054   -5.05503    2.41508
       H    12.42263    1.45644    1.13993
       O    11.76692    1.89659    1.66502
      H1    11.51059    2.73177    1.25802
       H     7.77844   -5.14732    4.04197
       O     8.26106   -5.15065    4.81260
      H1     8.97651   -5.83281    4.81306
       H    13.34156   -1.50110    3.98062
       O    13.04187   -1.02856    3.21362
      H1    12.71824   -0.20682    3.56268
       H     0.73711   -0.40887    5.93346
       O    -0.11509   -0.76749    5.59436
      H1    -0.73780   -0.03248    5.71841
       H     9.60593    0.23527    8.64778
       O     8.84306    0.37863    9.22188
      H1     8.62263   -0.45426    9.71496
       H     6.01427    1.82488    8.15567
       O     5.36756    2.31162    8.69852
      H1     5.87028    2.83930    9.33908
       H     7.58794    2.42002   -3.74968
       O     7.65109    2.06176   -2.84658
      H1     6.99024    2.48345   -2.25294
       H     5.11719   -5.14685   -2.97911
       O     5.83955   -4.55752   -2.74075
      H1     6.20809   -4.98637   -1.99845
       H     9.78479   -5.35516   -1.37882
       O     9.74904   -4.66642   -2.04394
      H1    10.52280   -4.85302   -2.63269
       H    11.77559    0.26838    7.38054
       O    10.85119    0.27098    7.47238
      H1    10.51481   -0.27791    6.74479
       H     3.09385   -0.08195    6.15753
       O     2.54105   -0.48111    6.89757
      H1     2.76467   -0.25798    7.76469
       H     6.87338   -1.87841    5.94768
       O     6.56614   -1.31875    5.19910
      H1     5.72305   -1.72315    4.95872
       H     3.92498   -8.00898    0.40743
       O     3.43807   -7.27323    0.77216
      H1     3.36346   -6.49876    0.26575
       H     3.94123   -4.01262   -0.91457
       O     4.32103   -4.39463   -0.15299
      H1     5.08880   -3.83416   -0.03201
       H     9.09665   -6.60712    0.81320
       O     8.98161   -6.58818    1.75706
      H1     8.07995   -6.32950    2.00894
       H     8.06248   -3.65875    7.51487
       O     7.87687   -3.18389    6.65453
      H1     7.80914   -3.85837    5.93807
       H    -0.62765    0.98045    2.09120
       O     0.08926    1.31265    2.69850
      H1     0.85308    0.73930    2.45182
       H    10.49240    0.33070    4.29966
       O    10.99670    1.19724    4.14747
      H1    10.99957    1.25103    3.16111
       H     9.09269   -0.05181   -3.83202
       O     9.83629   -0.63338   -3.72508
      H1     9.36454   -1.23272   -3.07852
       H     4.12036    2.46692    7.05350
       O     3.60576    2.58578    6.25073
      H1     4.04420    3.29543    5.83271
       H     5.19743    0.80012    0.61625
       O     4.54394    0.30935    0.11973
      H1     4.18630   -0.32893    0.78271
       H     7.69121   -7.24739   -1.75983
       O     7.14447   -6.56401   -1.39288
      H1     6.52700   -6.91556   -0.72342
       H     1.54573   -1.49803    1.17794
       O     1.45000   -2.22841    0.54857
      H1     0.55959   -2.07664    0.15277
       H     7.08218    4.22756    0.37642
       O     7.73636    4.73247    0.86669
      H1     8.56112    4.18943    0.89608
       H    10.47034    2.70425    4.50609
       O    10.01390    3.49666    4.84508
      H1     9.13255    3.36386    4.56155
       H     9.44153    0.18715    0.02231
       O     8.89880   -0.52892    0.36413
      H1     9.45373   -1.07178    0.97271

