180
frame 5 | Written by MDAnalysis XYZWriter (release 2.4.3)
       H    13.31270  -10.11282  -14.18530
       O    12.69384   -9.68964  -14.80826
      H1    13.08599   -9.96051  -15.61380
       H    12.40049  -10.57870   -8.76926
       O    12.75464  -11.22350   -8.10254
      H1    13.45677  -10.64039   -7.76346
       H     6.83845   -5.61690  -11.31521
       O     7.12620   -4.85660  -11.75563
      H1     6.35833   -4.61829  -12.29559
       H     9.56526   -3.64760  -13.30695
       O     8.81585   -3.00973  -13.27293
      H1     9.09612   -2.33612  -13.81853
       H     6.93656   -8.37237  -18.38380
       O     6.38414   -8.93690  -18.93692
      H1     6.88208   -8.85524  -19.75169
       H    11.29886   -3.38732  -15.62774
       O    11.22826   -4.31404  -15.41959
      H1    11.91486   -4.65167  -16.04110
       H     9.85168   -1.94435  -11.53096
       O    10.09498   -2.12882  -10.62645
      H1     9.30033   -2.43363  -10.25211
       H    13.56084   -6.09416  -11.12194
       O    13.20818   -5.29550  -11.56602
      H1    12.25546   -5.46293  -11.30011
       H     3.18381  -13.63282  -12.28017
       O     3.13779  -12.89225  -12.88525
      H1     2.53790  -13.34520  -13.52293
       H     3.68358   -2.78346  -10.93377
       O     3.59086   -3.36484  -10.15222
      H1     3.50952   -2.64814   -9.47128
       H     8.06359  -11.69320   -7.04361
       O     7.11438  -11.79330   -7.12909
      H1     6.92401  -10.99495   -7.61187
       H    10.34660   -9.79681  -10.14223
       O    11.18631  -10.26797  -10.22587
      H1    10.90676  -11.18902  -10.05301
       H     3.66469  -12.79945   -9.04662
       O     2.75389  -12.65183   -8.78621
      H1     2.83611  -12.19695   -7.93722
       H     8.37771   -5.30891   -6.47104
       O     8.52514   -4.56707   -7.03173
      H1     9.39232   -4.22143   -6.75780
       H     3.80576   -6.81572  -18.21415
       O     4.11005   -7.71968  -18.08319
      H1     4.82111   -7.80779  -18.73620
       H     3.42881   -8.47139   -7.48030
       O     3.24106   -8.01792   -8.32399
      H1     3.44817   -8.79645   -8.85816
       H    11.33372   -7.53952  -17.20801
       O    11.60859   -7.31477  -16.28495
      H1    11.93149   -8.19937  -16.07421
       H     5.52288   -8.73282   -5.91023
       O     4.81295   -9.19047   -5.44105
      H1     4.99136   -8.82370   -4.53008
       H     2.79702   -4.70832  -10.73553
       O     2.11567   -5.39793  -11.04467
      H1     1.69683   -5.58574  -10.20753
       H     3.01327   -6.97940  -15.21625
       O     3.94661   -7.20020  -15.42508
      H1     3.86005   -7.23251  -16.36119
       H    10.03208  -10.94945  -14.40519
       O     9.24685  -10.53314  -14.76794
      H1     9.00020   -9.93789  -14.06693
       H     1.25821  -10.51823  -10.41150
       O     0.74102  -10.00041  -10.99958
      H1     1.42382   -9.44500  -11.40425
       H     2.78949   -7.31480  -12.29989
       O     2.34767   -8.20117  -12.10140
      H1     2.26326   -8.61258  -12.97980
       H     5.40524  -14.90242  -11.56886
       O     5.84446  -15.59662  -12.03628
      H1     6.44180  -15.99189  -11.35704
       H    10.34515  -12.51429   -7.42508
       O     9.83395  -11.78088   -7.07583
      H1    10.52854  -11.12243   -6.98324
       H     9.86456   -7.48044  -15.57368
       O     9.11632   -7.29254  -15.01095
      H1     9.57124   -6.73800  -14.33388
       H     8.75818  -11.42506  -16.38325
       O     8.55082  -11.89651  -17.21153
      H1     7.58511  -11.76338  -17.23471
       H     6.61153  -13.46467   -7.77124
       O     6.59035  -14.36779   -8.11185
      H1     6.08079  -14.64566   -7.33920
       H     9.13028   -4.64058  -16.20900
       O     8.40863   -4.16803  -16.71779
      H1     7.68602   -4.24327  -16.09267
       H    10.97560   -5.96809   -8.83485
       O    10.35543   -6.33018   -8.16931
      H1     9.65677   -5.68090   -8.10056
       H    10.48261   -3.76705  -10.80965
       O    10.72170   -4.72095  -10.68351
      H1    10.16832   -4.94120  -11.49848
       H     9.33508   -7.92534   -9.32094
       O     9.08609   -8.65142   -9.87526
      H1     8.65187   -8.23823  -10.68395
       H     1.57523   -8.31871   -8.83104
       O     0.58590   -8.30830   -8.99092
      H1     0.56459   -8.78912   -9.83624
       H     7.29147   -8.45681  -12.48124
       O     8.22877   -8.36663  -12.33229
      H1     8.44581   -7.81440  -13.12581
       H     9.24519  -13.19099  -16.04694
       O     9.55055  -13.49354  -15.16422
      H1     8.79846  -13.35644  -14.51584
       H     6.02448  -10.46456  -17.97488
       O     5.90775  -11.32643  -17.67446
      H1     5.59214  -11.14228  -16.77777
       H     8.52428   -5.58590  -12.61500
       O     9.42910   -5.80043  -12.69111
      H1     9.48451   -6.75216  -12.51107
       H    10.68744   -7.87840   -7.12082
       O    10.94738   -8.70757   -6.72640
      H1    10.84324   -8.53919   -5.78969
       H     8.32540   -6.26024  -18.72962
       O     8.61349   -5.72497  -19.47556
      H1     8.46712   -4.83659  -19.13993
       H     5.69104  -14.97918  -13.98564
       O     5.29273  -14.30226  -14.59895
      H1     5.81827  -13.46707  -14.49213
       H     7.69028   -4.01525   -9.94578
       O     7.99490   -3.20847   -9.55042
      H1     8.00263   -3.42725   -8.57093
       H     5.80668   -3.33004  -14.76325
       O     6.59401   -3.92789  -14.66469
      H1     7.26177   -3.24634  -14.33969
       H     8.22922  -11.74372  -13.93590
       O     7.48103  -12.40885  -13.85625
      H1     7.58129  -12.76816  -12.92848
       H     8.26256   -7.03737  -16.63403
       O     7.63696   -7.15402  -17.41696
      H1     6.84133   -6.90153  -16.95459
       H     4.19528   -6.37607   -8.59472
       O     4.76781   -5.57872   -8.54422
      H1     4.15335   -5.02930   -9.04136
       H     1.65293   -9.55131  -15.16479
       O     1.93626   -9.83802  -14.30295
      H1     1.26255  -10.51356  -14.06611
       H    10.85067  -12.27204  -12.46514
       O    11.27084  -11.81479  -13.18896
      H1    12.12028  -12.24916  -13.13110
       H     5.79529   -6.47922   -9.56908
       O     6.31082   -7.01188  -10.14673
      H1     5.59916   -7.26865  -10.80540
       H     4.25575  -10.40708  -10.55201
       O     3.63494  -10.25415   -9.80966
      H1     3.34601  -11.17763   -9.65259
       H    13.97402  -10.24708  -10.32064
       O    13.56853  -10.18989  -11.19864
      H1    12.62170  -10.27618  -10.88406
       H     5.73446  -13.38483  -10.01690
       O     4.81793  -13.73654  -10.20995
      H1     4.78385  -14.42716   -9.55286
       H     5.19644   -7.66532  -14.18991
       O     5.43654   -8.05476  -13.31958
      H1     4.98515   -8.92536  -13.45784
       H     7.70211   -9.04688   -9.19736
       O     6.82692   -9.39981   -8.87247
      H1     6.11651   -8.80389   -9.21428
       H    12.01272   -8.37294  -13.24165
       O    11.60109   -7.56177  -13.05632
      H1    12.24953   -6.89025  -13.15680
       H     7.38939   -8.78248   -7.16891
       O     7.38616   -8.42709   -6.27817
      H1     7.56468   -9.19858   -5.74357
       H    10.22062  -13.50750   -9.81401
       O    10.04753  -13.23996  -10.71846
      H1    10.44443  -14.01415  -11.19433
       H     1.24532   -5.26315  -15.58417
       O     1.28686   -6.02154  -14.96338
      H1     0.44242   -6.02597  -14.48250
       H     4.62533  -12.21872  -14.52185
       O     4.73506  -11.37470  -14.96989
      H1     3.87790  -11.01163  -15.01055
       H     8.34085  -12.63418  -10.89939
       O     7.42294  -12.37543  -11.09265
      H1     7.51137  -11.40136  -11.07825
       H     4.73982  -10.62447  -12.92510
       O     5.16880  -10.70742  -12.04462
      H1     5.51603  -11.58427  -12.07929

