180
frame 6 | Written by MDAnalysis XYZWriter (release 2.4.3)
       H     6.00161    5.33790  -18.81845
       O     5.05167    5.14294  -18.83730
      H1     4.63040    5.88938  -18.37953
       H     3.49250    7.97809  -12.81602
       O     4.16255    8.22032  -12.15837
      H1     4.22030    9.18319  -12.28203
       H     0.24057   15.19416  -13.25488
       O     0.29099   16.10078  -12.78155
      H1     0.66461   16.68007  -13.48634
       H    10.61491   11.50657  -15.74918
       O    10.68732   12.44382  -15.44057
      H1    11.12788   12.27564  -14.64293
       H     3.53321   16.58228  -18.31468
       O     3.81164   16.59930  -19.22911
      H1     3.01341   16.91157  -19.66868
       H     6.46716   12.37319  -11.39152
       O     6.27510   12.95986  -10.60219
      H1     5.51373   13.49236  -10.86304
       H     2.76558   10.70483  -12.28770
       O     3.69165   10.98041  -12.18024
      H1     3.74156   10.82869  -11.22394
       H     8.42183   12.85048  -18.55759
       O     8.10118   12.06582  -18.98659
      H1     7.11922   12.07949  -18.90775
       H     6.58988    9.21122  -15.29669
       O     7.26053    9.82535  -14.90406
      H1     6.89009   10.69937  -15.21465
       H     7.50191   15.74190  -15.57343
       O     8.38756   16.09008  -15.54278
      H1     8.24467   17.04173  -15.66278
       H    10.61657   17.32192  -17.37391
       O    10.41508   16.51145  -17.80157
      H1     9.60001   16.24188  -17.41620
       H    -2.95065   15.03321  -15.30169
       O    -2.52432   14.17092  -15.28477
      H1    -2.76429   13.77752  -14.42467
       H     5.53215   17.14690  -14.77298
       O     4.55407   17.41606  -14.61579
      H1     4.53354   18.34347  -14.61089
       H    11.80705    8.30154  -13.84765
       O    11.34757    7.79440  -14.48914
      H1    11.95848    7.02230  -14.64646
       H     1.63687   16.26100  -11.57379
       O     2.17845   16.40094  -10.78056
      H1     2.20083   17.37813  -10.74920
       H     8.22183   13.02068  -14.28749
       O     7.88011   12.73552  -15.17210
      H1     8.65145   12.40620  -15.65442
       H     1.92790   13.57934  -18.66227
       O     1.79857   14.11606  -17.84672
      H1     2.15655   14.90862  -18.22668
       H    -1.29223   11.51226  -19.55173
       O    -1.24769   10.98142  -18.69748
      H1    -1.67299   11.58788  -18.06889
       H     6.98981    6.62590  -18.10337
       O     6.49575    7.46762  -18.13538
      H1     7.22861    8.09816  -17.96703
       H     4.69402   12.46691  -15.92442
       O     4.66337   11.53581  -16.19833
      H1     4.83488   11.70260  -17.15901
       H     2.51267   11.85973  -15.74459
       O     1.49346   11.95503  -15.74952
      H1     1.41774   12.64688  -16.47990
       H     1.26473    9.10497  -12.36073
       O     1.16252    9.97357  -11.91639
      H1     0.62620    9.70812  -11.15845
       H     4.31713    7.03713  -15.71108
       O     3.35637    6.89488  -15.89497
      H1     2.94030    7.62896  -15.38351
       H     8.68462    7.20690  -13.64004
       O     9.30051    6.47892  -13.40553
      H1    10.13290    6.79867  -13.91826
       H     2.73703   19.65466  -16.95553
       O     1.76466   19.65907  -16.97118
      H1     1.58904   18.88382  -16.37523
       H     6.59145    6.53391  -15.21534
       O     5.96611    7.21581  -15.47775
      H1     6.13158    7.27659  -16.44297
       H    -0.11854    7.13957  -18.64313
       O     0.39541    6.94198  -17.87035
      H1     0.90678    7.76878  -17.77984
       H     8.28067    5.45219  -14.46085
       O     7.48730    5.06150  -14.89852
      H1     7.05333    4.74045  -14.10478
       H    11.24179   15.29801  -14.61367
       O    11.31316   15.84869  -13.79800
      H1    11.50119   16.75983  -14.19885
       H     2.24948    9.90730  -15.66036
       O     3.02465    9.49962  -15.30435
      H1     3.65051   10.24982  -15.55727
       H     4.51028   11.78203   -9.42390
       O     4.83512   10.92379   -9.69044
      H1     5.69361   11.08337  -10.12327
       H     2.25672    4.12963  -15.66743
       O     2.38989    4.52034  -14.78408
      H1     2.68632    5.43089  -14.94378
       H     5.62161    4.39829  -15.59133
       O     5.12345    3.58038  -15.59269
      H1     4.26278    3.88795  -15.31603
       H    -0.83002   14.67445  -18.72264
       O    -1.43976   14.58049  -19.42103
      H1    -2.19830   14.17641  -19.08723
       H    10.49066    9.23109  -15.87985
       O     9.71213    9.74208  -16.25830
      H1     9.00916    9.71835  -15.58592
       H     0.90806   12.14853  -12.59843
       O     1.18611   12.89997  -13.21725
      H1     1.26155   12.44600  -14.03842
       H     7.11521    7.87394  -11.98104
       O     7.75599    8.47530  -12.32074
      H1     8.12219    8.87495  -11.50791
       H    -0.42054   11.09449  -15.10636
       O    -0.75489   10.37864  -14.53063
      H1    -0.05054   10.40759  -13.87466
       H     6.51399   18.43215  -19.63428
       O     5.62630   18.85615  -19.40704
      H1     5.06434   18.02851  -19.41547
       H     4.98597   13.43369  -19.34802
       O     5.32893   12.72258  -18.72798
      H1     5.51123   13.36427  -18.05812
       H     0.55713   18.87728  -14.29332
       O     1.28307   18.22971  -14.36402
      H1     1.91087   18.60053  -13.65404
       H    -0.58790    7.73394  -16.58047
       O    -1.19137    7.70225  -15.84029
      H1    -0.91136    8.51655  -15.42090
       H    11.29961   14.27301  -10.65553
       O    10.88821   13.40844  -10.86916
      H1    10.21169   13.76573  -11.49154
       H     9.35408   14.92376  -13.59222
       O     8.92188   14.20743  -13.06201
      H1     8.03992   14.58767  -12.92647
       H     4.04846   13.91491  -14.22746
       O     3.96287   13.90399  -15.18912
      H1     4.44445   14.72593  -15.36157
       H     5.32135    6.70612  -12.86587
       O     5.75063    5.87074  -12.65926
      H1     6.02638    5.92183  -11.72804
       H     1.70549    9.93983  -18.26776
       O     0.98028    9.52401  -17.73658
      H1     0.19084   10.07019  -17.97593
       H     1.59907   16.38294  -16.31054
       O     2.50298   16.66918  -16.62185
      H1     3.02063   16.86395  -15.81423
       H     6.26686   14.44149  -13.49285
       O     6.14372   15.34013  -13.64005
      H1     5.79787   15.70673  -12.84326
       H     1.80914    6.78066  -12.13564
       O     1.67459    7.35156  -12.88585
      H1     0.89705    6.97220  -13.28107
       H     2.80661   13.56078  -12.37026
       O     3.78375   13.48488  -12.21016
      H1     3.93652   12.51667  -12.22911
       H     0.81830    5.34328  -14.65622
       O     0.02405    5.71626  -14.23742
      H1    -0.21858    6.33633  -14.93026
       H     3.05848    9.64612  -19.84450
       O     3.35253   10.19047  -19.08143
      H1     4.04542    9.73925  -18.60769
       H     6.70475   14.93328  -17.36392
       O     6.24908   14.57435  -16.60104
      H1     6.85464   13.87487  -16.27286
       H     8.70577    5.57175  -19.38071
       O     7.97698    5.13487  -18.91523
      H1     8.33858    4.23814  -18.63860
       H     3.72861   16.91469  -11.64671
       O     4.54777   17.32983  -11.95504
      H1     4.26392   17.57204  -12.83162
       H    -0.99037   14.88721  -15.98419
       O    -0.26276   15.47504  -16.25520
      H1     0.28213   14.89606  -16.84836
       H    10.61772   14.55108  -18.46675
       O    10.43701   13.68023  -18.12483
      H1    10.85425   13.56262  -17.27550
       H    11.95979   11.19599  -18.95953
       O    12.86724   11.00375  -18.57518
      H1    13.42711   11.31468  -19.33038
       H     5.60219   11.15709  -13.24272
       O     6.46096   11.47616  -12.87893
      H1     7.14657   10.87782  -13.32974

