180
frame 18 | Written by MDAnalysis XYZWriter (release 2.4.3)
       H     6.15086    3.32905   18.09006
       O     6.18090    3.94572   17.43034
      H1     6.50899    4.77137   17.91744
       H    10.14394    7.41493   12.24860
       O     9.84133    8.23540   11.83606
      H1     9.82168    7.95288   10.93941
       H     6.59315    0.90363   18.32190
       O     6.53407    0.78524   19.27836
      H1     7.47520    0.72238   19.47731
       H    12.53230    1.73940   18.30224
       O    12.88468    1.37718   17.47200
      H1    13.81234    1.65365   17.63455
       H    13.18744    7.69139   14.14003
       O    12.91968    7.50206   15.03746
      H1    13.61873    7.80193   15.56335
       H    14.24279    6.13477   17.43195
       O    14.71067    6.37553   18.23794
      H1    15.64454    6.46669   18.01114
       H    17.77573    2.97614   11.06019
       O    17.11877    3.66538   11.17996
      H1    16.28970    3.19269   11.38461
       H    10.31741   -1.30049   14.58707
       O    10.72365   -0.68353   15.23471
      H1    11.48169   -0.37457   14.68996
       H     9.60165    8.44555    8.66215
       O    10.11221    7.65169    8.93017
      H1     9.91827    7.07740    8.16082
       H    13.60153    7.83049    9.17859
       O    14.16838    8.61092    9.02179
      H1    14.58275    8.24292    8.25306
       H     9.30052    4.80075   10.38113
       O     9.18714    4.65365    9.44271
      H1     9.00059    5.52219    9.08781
       H    10.39656    0.32486   11.56232
       O    10.52497    1.22120   11.19909
      H1    10.79450    1.62829   12.07633
       H     6.43515    8.52527   13.12459
       O     5.94503    9.31064   13.01502
      H1     6.53555   10.05994   13.07756
       H    12.52682    4.65860   13.60900
       O    11.60826    4.45611   13.77552
      H1    11.49933    5.09767   14.48529
       H    13.95968    1.29776    9.46247
       O    14.23829    1.52012    8.56270
      H1    14.47636    2.43872    8.67975
       H    15.95660    7.62782   11.95478
       O    15.33274    6.85617   11.97620
      H1    15.51659    6.66994   11.04329
       H    11.83216   10.95848   16.44119
       O    11.89522    9.97772   16.41850
      H1    12.24748    9.89273   15.52945
       H     6.79963    6.15446   13.38539
       O     6.96681    6.67389   12.60858
      H1     6.51897    6.15562   11.94764
       H    11.74239    8.26440   17.61006
       O    10.95153    7.85589   18.00347
      H1    11.32469    7.47743   18.88368
       H    16.14929    9.46413   10.55833
       O    16.82299    9.16541   11.19301
      H1    17.39354    9.92813   11.28393
       H     4.77727    4.34139   11.87126
       O     5.58797    4.57569   11.41924
      H1     6.13996    3.76653   11.48737
       H    13.38383    4.12914   18.72162
       O    13.44293    4.02044   19.69807
      H1    13.10474    3.15306   19.87657
       H    16.30723    3.06359   15.87946
       O    15.72845    3.30813   15.12025
      H1    16.28250    4.06215   14.89050
       H    11.32148    7.26125   14.74542
       O    10.37138    7.01777   14.57043
      H1     9.89370    7.74382   15.03104
       H     7.33848   -0.36463   12.29943
       O     7.88590   -0.63091   13.08032
      H1     7.19363   -0.88439   13.72430
       H     8.18172   12.26752   13.38311
       O     8.89449   12.35142   14.01023
      H1     9.54591   12.78104   13.45608
       H    13.65806    7.39525   12.26407
       O    12.74578    7.54574   12.40316
      H1    12.72400    8.50674   12.02132
       H    12.18464   10.19559   10.61951
       O    11.92150    9.89856   11.55894
      H1    11.17777    9.33258   11.40523
       H    19.17555    6.84265   14.98085
       O    18.33234    7.33930   14.79421
      H1    17.81152    6.65495   14.30700
       H     8.71332    5.65422   12.66777
       O     9.31243    5.05983   12.18362
      H1     9.93536    4.67354   12.82858
       H    11.75739    6.96300    9.69249
       O    12.47415    6.38271    9.91512
      H1    12.41342    6.60194   10.86267
       H    16.50928    3.48538   18.68543
       O    16.84444    3.85983   17.82649
      H1    17.04360    4.79111   17.97482
       H    14.44857    3.49822   13.33433
       O    14.39901    3.56559   12.35987
      H1    14.12854    2.62320   12.18593
       H     6.34464    7.48913   17.81888
       O     6.85649    6.98914   18.49970
      H1     7.61843    6.73861   17.97636
       H    14.13890    4.11075   15.88619
       O    13.41289    4.48033   16.42898
      H1    12.65717    4.06066   15.98840
       H    16.14265    8.07187   16.22705
       O    15.41035    8.68116   15.99936
      H1    15.76280    9.39805   15.42396
       H     6.66971    0.36951   16.01523
       O     6.63501    1.23864   16.51106
      H1     6.25547    1.82640   15.78975
       H     8.48328    2.19256    8.01316
       O     7.69807    2.35460    8.51365
      H1     7.98219    3.19039    8.95524
       H    11.65764   13.22226   14.86618
       O    11.71132   12.67502   15.65119
      H1    11.01295   12.99648   16.30702
       H    12.53512    3.52725    8.00791
       O    12.40943    4.51613    7.86368
      H1    12.43453    4.90445    8.78607
       H     3.90612    1.95798   16.78950
       O     3.66569    2.88377   16.73968
      H1     4.52120    3.30029   16.92852
       H    15.28116   11.59580   17.67756
       O    15.11673   10.72510   18.03786
      H1    15.49072   10.09330   17.40274
       H    14.28633    0.05912   11.30078
       O    13.66007    0.78669   11.21620
      H1    12.89527    0.41990   11.72195
       H     7.17551    8.26438   15.93778
       O     6.28749    7.97219   15.85259
      H1     6.03587    8.46029   15.05455
       H    16.25388   10.30325   13.29783
       O    16.06257   10.42076   14.25113
      H1    15.57705   11.29432   14.31375
       H     9.72512    2.20947   14.64971
       O     9.99920    1.52010   13.98174
      H1    10.11776    0.75623   14.54461
       H     9.06937    3.51392   16.96700
       O     9.34209    2.66762   16.50179
      H1     8.42223    2.30078   16.34570
       H    12.08602    1.94826   14.47809
       O    12.91004    1.42191   14.58694
      H1    12.96729    1.33937   15.52845
       H    10.58104    5.02194    7.24315
       O    10.11003    5.69242    6.75571
      H1     9.18012    5.37223    6.83687
       H     5.63465    3.46350   14.66658
       O     5.86706    2.53487   14.39619
      H1     6.70042    2.75345   14.02022
       H     8.35896    2.04805   11.65905
       O     7.66983    2.70632   11.87702
      H1     8.26003    3.45963   11.99800
       H     9.30812   -1.29462   12.19072
       O    10.26368   -1.48578   12.11816
      H1    10.37567   -1.81983   11.18560
       H    17.35619    4.83475   13.15434
       O    16.89322    5.27060   13.87965
      H1    16.09886    5.59462   13.40379
       H     4.91402    5.95441   14.69072
       O     5.54622    5.27670   15.01383
      H1     5.37386    5.46179   15.92865
       H    17.61231    6.70459   16.31216
       O    17.19021    6.71148   17.17124
      H1    17.83479    7.19021   17.72360
       H    11.89252   10.05334   18.44257
       O    12.56045   10.28472   19.11930
      H1    13.36973   10.35918   18.64249
       H     9.36000    9.85256   16.45889
       O     8.90327    9.13097   16.85978
      H1     9.53468    8.66578   17.38860
       H    16.03675    4.32893    9.97041
       O    15.13795    4.40133    9.55814
      H1    14.59376    4.19010   10.33745
       H     9.18430    5.12619   18.46735
       O     9.25168    5.65832   17.66240
      H1    10.03628    6.19176   17.79822
       H    10.76509    1.74749    9.31457
       O    10.71030    2.41991    8.63229
      H1    10.56503    3.31207    9.00537

