180
frame 11 | Written by MDAnalysis XYZWriter (release 2.4.3)
       H     2.76833   15.58240  -10.71678
       O     1.98386   15.08406  -10.54355
      H1     1.24770   15.71183  -10.55436
       H     2.31224   14.65195  -15.53919
       O     3.19801   14.47738  -15.42228
      H1     3.52763   14.28585  -16.29718
       H     4.12495   17.99916  -15.40563
       O     3.59964   17.42793  -14.84831
      H1     3.69256   16.53950  -15.11360
       H    13.25902   10.16049  -13.11401
       O    13.40250   11.05392  -13.19993
      H1    13.97084   11.36646  -12.51549
       H    13.09906   12.42434  -15.61315
       O    13.64812   13.09151  -16.07795
      H1    14.46418   12.96576  -15.56277
       H    17.18711   14.89142  -15.98639
       O    17.19853   14.85331  -15.00369
      H1    16.60513   14.17365  -14.76040
       H    15.60606   19.25898  -17.11183
       O    15.04099   19.07337  -17.84023
      H1    15.17900   19.84546  -18.46000
       H     8.73312   14.73280  -10.37300
       O     8.02043   14.21256  -10.81617
      H1     8.46648   13.55582  -11.41559
       H     6.98040   16.94908  -17.67312
       O     6.54554   17.23519  -18.51391
      H1     6.40394   18.19819  -18.41549
       H     4.93996   16.34722  -11.21630
       O     4.26904   16.13879  -11.84665
      H1     4.19840   17.05647  -12.21301
       H    11.33830   15.00875  -19.50533
       O    10.44313   15.41415  -19.50955
      H1    10.10462   15.15310  -18.63563
       H    14.19755   13.44342   -9.49284
       O    14.59725   14.29215   -9.70622
      H1    13.82291   14.80940   -9.99022
       H    15.31354   13.31650  -10.81324
       O    15.70961   12.69963  -11.45819
      H1    16.62605   12.65625  -11.14249
       H    15.91322   16.99648   -9.41287
       O    15.91974   16.54069   -8.54998
      H1    15.44521   15.73502   -8.83915
       H     4.95414   14.78429  -12.98364
       O     5.39261   14.17312  -13.62564
      H1     4.79464   14.30351  -14.43643
       H    16.68445   16.40610  -14.54410
       O    16.59432   17.22835  -14.01529
      H1    15.69178   17.57775  -14.28255
       H     4.48174   18.37181  -13.01622
       O     4.89749   18.64106  -12.18380
      H1     5.83103   18.63988  -12.25576
       H    13.14914   17.60984  -13.22219
       O    12.60962   17.38865  -12.41087
      H1    11.75318   17.37264  -12.76583
       H    12.47469   17.15085  -18.42674
       O    11.98576   17.00956  -17.60350
      H1    11.17829   16.61570  -17.89351
       H    10.83447   13.72303   -9.01604
       O    10.87289   13.37702   -9.95181
      H1    10.67642   12.42550   -9.90594
       H     7.66167   16.80049  -12.95346
       O     7.68149   16.03105  -13.54632
      H1     7.42244   15.28519  -12.96273
       H    13.07001   18.34417   -8.65760
       O    13.10840   18.87310   -9.50783
      H1    12.58213   18.41294  -10.13774
       H     8.41440   17.39434  -10.83494
       O     7.96176   18.09554  -11.33103
      H1     8.66468   18.75273  -11.41057
       H    17.87275   17.40716  -11.09222
       O    16.94296   17.13612  -11.24755
      H1    16.85392   17.14445  -12.20280
       H     5.65284   16.21099   -8.88564
       O     6.02799   16.27434   -9.78733
      H1     6.70909   15.59939  -10.06404
       H     4.89975   13.27841  -11.19149
       O     4.46509   12.43671  -10.93624
      H1     3.73439   12.41566  -11.53277
       H     2.07142   17.82385  -10.51327
       O     1.61549   17.91705  -11.33868
      H1     0.86049   18.51801  -11.21255
       H     7.18452   15.54826  -15.17165
       O     7.09296   15.50161  -16.10859
      H1     6.48024   14.82675  -16.30325
       H     1.70918   17.88038  -14.55584
       O     0.78970   18.14252  -14.25188
      H1     0.87838   18.23772  -13.23526
       H    14.91471   15.49051  -19.65003
       O    15.53680   16.17526  -19.38601
      H1    15.14885   16.55720  -18.58657
       H    12.31021   18.86803  -16.90686
       O    12.12844   19.34359  -16.11290
      H1    11.36835   18.89826  -15.79307
       H    16.29643   12.32416  -14.42848
       O    15.53152   12.88171  -14.23422
      H1    15.52844   13.10748  -13.32441
       H    10.20586   15.45380  -15.93416
       O     9.71958   15.23291  -16.78525
      H1     8.78726   15.19591  -16.60982
       H     7.04534   13.33482  -17.74183
       O     7.98562   13.12827  -17.94020
      H1     8.31416   12.73876  -17.12596
       H     5.84763   19.66244   -9.34272
       O     6.86192   19.69882   -9.41278
      H1     7.11338   18.97472  -10.03611
       H     9.96488   13.30204  -15.90463
       O     9.87362   12.36756  -15.63641
      H1     9.55794   12.38257  -14.76813
       H    10.27597   16.39852   -9.11491
       O     9.30695   16.18626   -9.23600
      H1     8.88784   16.65556   -8.47083
       H    13.19765   14.72939  -15.53590
       O    13.03295   15.69047  -15.42660
      H1    12.62662   15.98691  -16.25499
       H    11.09006   15.45492  -14.28603
       O    10.34129   16.10221  -14.23799
      H1     9.72741   15.69067  -13.69104
       H    17.23128   18.83669  -15.05518
       O    17.22076   19.49603  -15.78153
      H1    17.93110   20.12600  -15.50040
       H     4.80902   13.31364  -17.39181
       O     5.56328   13.49786  -16.89475
      H1     5.58289   12.82210  -16.19075
       H    12.14634   12.52350  -12.92224
       O    11.71560   13.38979  -12.99036
      H1    12.09275   13.93561  -12.32453
       H    14.74314   18.83662  -10.62271
       O    15.38825   19.31629  -11.15924
      H1    16.11732   18.73127  -11.31445
       H     9.43379   18.92811  -15.47144
       O    10.00487   18.84192  -14.69140
      H1    10.11820   17.90911  -14.66031
       H     3.66565   16.95034  -18.06648
       O     4.17459   16.17684  -17.91723
      H1     5.07638   16.53080  -18.07390
       H     8.24955   11.90283   -8.62241
       O     8.04341   11.75136   -9.58096
      H1     7.78313   12.66672   -9.92420
       H     6.92607   12.39853  -18.97460
       O     6.39079   11.64714  -19.32644
      H1     6.89524   11.20906  -20.05464
       H     1.86507   17.72495  -17.97890
       O     2.47681   18.12858  -18.61370
      H1     2.77841   18.94430  -18.10935
       H     1.82938   17.71988   -8.05427
       O     2.61661   17.47437   -8.51510
      H1     2.99960   18.31423   -8.71695
       H    14.17961   12.44893  -17.91681
       O    14.48989   12.16374  -18.78456
      H1    15.42037   12.41436  -18.77081
       H     6.44915   19.33966   -7.55885
       O     6.47449   18.78222   -6.74772
      H1     6.13005   19.32678   -6.02843
       H     3.55350   12.16698  -14.85544
       O     4.36185   11.64621  -14.55021
      H1     4.53903   11.95218  -13.67258
       H     9.49670   18.45780   -6.23537
       O     9.12221   18.25823   -7.10077
      H1     8.28502   18.69956   -7.11821
       H    11.74178   14.90290  -10.46653
       O    12.18198   15.72732  -10.24497
      H1    12.32960   16.34464  -10.95217
       H    13.74858   18.71045  -15.13891
       O    14.14340   17.89601  -14.71816
      H1    13.76749   17.12222  -15.11811
       H    10.96317   11.48212  -16.63250
       O    11.81603   11.01635  -16.80360
      H1    11.66403   10.54958  -17.61396
       H     1.78054   13.20461  -18.37480
       O     2.62391   13.01940  -17.92731
      H1     2.79914   12.08391  -17.89832
       H     9.97485   12.92352  -12.88053
       O     9.02580   12.62955  -12.84467
      H1     9.06206   11.72233  -12.42828
       H    17.06296   15.42877  -18.41447
       O    17.69457   14.84310  -17.98906
      H1    18.58937   15.15050  -18.17282
       H    12.07697   16.27976   -7.22095
       O    11.77157   17.16319   -7.51307
      H1    10.84570   17.03830   -7.28658

