180
frame 12 | Written by MDAnalysis XYZWriter (release 2.4.3)
       H    -4.17933  -12.86103  -14.20401
       O    -4.50818  -13.34348  -15.00230
      H1    -4.77339  -12.52671  -15.51245
       H     5.39339  -17.55184  -10.21514
       O     5.80194  -17.71466  -11.04886
      H1     6.73733  -17.62311  -10.84735
       H    -6.23279  -13.83591  -14.21322
       O    -7.15756  -13.53097  -14.06512
      H1    -7.40550  -14.20717  -13.39777
       H    -2.63054  -11.13985  -13.97172
       O    -2.96992  -11.72663  -13.28474
      H1    -2.15726  -12.24052  -13.08663
       H    -2.15059  -12.44567  -16.17757
       O    -1.80751  -12.23054  -17.06379
      H1    -1.04924  -12.82020  -17.07607
       H     0.30851  -17.73673  -10.09175
       O     0.53267  -17.86492   -9.17205
      H1     0.54432  -16.94130   -8.82029
       H     8.14929  -10.08216  -19.21437
       O     7.16072  -10.16665  -19.03910
      H1     6.97098  -11.02073  -19.50165
       H    -0.28123  -18.70855  -15.33721
       O    -0.76497  -18.95100  -16.15947
      H1    -0.42898  -19.85117  -16.33800
       H     4.93981  -16.54647  -14.28880
       O     4.59308  -15.65559  -14.39796
      H1     5.03437  -15.19047  -13.65549
       H     2.51434  -14.49562  -10.65747
       O     1.98463  -13.71735  -10.99812
      H1     1.38626  -13.65219  -10.28243
       H    -0.26834  -16.82249  -18.65228
       O    -0.93641  -17.50772  -18.69587
      H1    -1.08973  -17.67901  -17.74300
       H     1.04091  -12.42999  -15.56836
       O     1.63243  -12.58698  -16.34707
      H1     1.48097  -13.51404  -16.51102
       H    -0.21973  -14.65304  -16.81038
       O    -0.82506  -14.48961  -16.09015
      H1    -1.63196  -14.77067  -16.46676
       H     5.80549  -18.05755  -12.81125
       O     5.67019  -18.03778  -13.77349
      H1     6.57270  -17.74187  -14.05984
       H    -0.83816  -16.50433  -12.08880
       O     0.01853  -16.81941  -11.85724
      H1     0.10589  -17.69744  -12.32602
       H    -3.30148  -17.77260   -9.19130
       O    -3.93106  -17.44170   -9.83183
      H1    -4.64758  -18.12075   -9.73015
       H     6.40807   -9.84157  -16.11069
       O     5.77354  -10.31545  -16.68501
      H1     6.28291  -10.26037  -17.52784
       H    -6.49157  -17.68540  -15.20490
       O    -5.86910  -17.77699  -14.48223
      H1    -5.12787  -18.13164  -15.01319
       H     1.20092  -19.05704  -13.00320
       O     0.24486  -19.04718  -13.22284
      H1    -0.00811  -19.72284  -12.53855
       H     9.21456  -18.25077  -12.06388
       O     8.45492  -17.61894  -11.97481
      H1     8.87947  -16.73760  -12.19673
       H    -8.16716  -17.30021  -17.31181
       O    -7.62423  -16.88088  -16.60974
      H1    -7.99699  -16.04041  -16.39413
       H     6.30605  -11.74433  -13.33937
       O     6.67305  -11.90964  -14.18658
      H1     5.92839  -11.94093  -14.77197
       H    -3.76233  -16.08442  -12.57440
       O    -2.87491  -16.41126  -12.89914
      H1    -2.86153  -17.35153  -12.56972
       H    -1.93792  -14.10750  -11.82239
       O    -1.30378  -13.37377  -11.71718
      H1    -0.88841  -13.73329  -10.90962
       H     8.70402  -17.16395  -14.66040
       O     8.02185  -17.70410  -15.09914
      H1     8.28235  -17.64338  -16.03658
       H    -5.87817  -15.92810  -11.86193
       O    -5.53166  -15.79716  -12.74439
      H1    -5.78660  -16.64011  -13.16376
       H     2.13582   -9.77061  -19.52297
       O     1.25518   -9.43743  -19.25426
      H1     1.41495   -8.45774  -19.29269
       H     1.83408  -19.11143  -17.97379
       O     1.70416  -19.52126  -18.87003
      H1     1.92342  -18.79798  -19.37171
       H     4.08989  -14.89599  -18.00059
       O     3.85455  -13.99057  -18.30766
      H1     4.10965  -13.52639  -17.46362
       H     1.91581  -17.74693  -15.88513
       O     2.44852  -18.43029  -16.31737
      H1     3.20587  -17.83810  -16.58921
       H     0.92048   -9.17294  -16.80970
       O     0.52546   -9.12329  -15.89521
      H1     1.10144   -8.44995  -15.37729
       H    -2.50069  -10.64948  -19.62185
       O    -2.95000  -11.48132  -19.79010
      H1    -2.77835  -11.99856  -18.97140
       H     1.21121  -15.36030  -14.75496
       O     1.68177  -16.13327  -15.03620
      H1     2.56625  -15.67163  -15.09434
       H    -4.07392  -14.74653  -16.22365
       O    -3.58305  -15.36557  -16.81737
      H1    -3.66950  -16.19195  -16.29104
       H     8.54080  -15.02122  -13.80007
       O     8.95153  -14.98839  -12.94898
      H1     8.30473  -14.55393  -12.39253
       H     3.14746  -18.21447  -12.55920
       O     2.89337  -19.12275  -12.76242
      H1     3.53946  -19.20966  -13.47874
       H     4.80171  -11.68866  -16.47396
       O     4.44456  -12.50656  -16.06044
      H1     3.41972  -12.42205  -16.01912
       H     7.36771  -14.25579  -16.28457
       O     6.68827  -14.90927  -16.10119
      H1     5.93272  -14.44985  -15.69145
       H    12.10637  -18.90836  -14.50735
       O    11.24882  -18.69069  -14.08556
      H1    11.60154  -18.25557  -13.31454
       H     1.33518  -15.40869  -18.78753
       O     0.67582  -15.02306  -18.18212
      H1     0.29002  -14.33580  -18.77383
       H     6.01025  -15.89392  -11.73197
       O     5.60452  -15.05225  -11.80560
      H1     4.79878  -15.20199  -11.30367
       H     5.14648  -12.85664  -19.37596
       O     6.02249  -12.54079  -19.72483
      H1     6.61464  -13.30785  -19.49804
       H     0.35727  -13.28493  -12.84032
       O     0.73705  -12.95242  -13.63034
      H1     1.67642  -12.91722  -13.34544
       H     7.97944  -17.49048  -18.25326
       O     8.36465  -16.93954  -17.58182
      H1     7.68499  -16.47120  -17.06662
       H    11.39874  -16.63620  -17.54030
       O    12.28825  -16.88087  -17.79834
      H1    12.03811  -17.35584  -18.60397
       H    11.25872  -15.73139  -15.05801
       O    10.49296  -16.26791  -15.36169
      H1    10.88990  -17.11632  -15.09596
       H     6.15543  -19.01249  -19.68530
       O     6.49786  -18.61133  -18.87222
      H1     6.47923  -19.46785  -18.44034
       H    -1.94974  -10.32113  -17.83708
       O    -1.69097   -9.56815  -18.35633
      H1    -0.80885   -9.81038  -18.71667
       H    -2.32736  -18.25097  -15.75405
       O    -3.35024  -18.29058  -15.83448
      H1    -3.30892  -18.89110  -16.60396
       H    -6.16886  -16.47338  -18.01077
       O    -5.51947  -15.98224  -18.46517
      H1    -4.89019  -15.62748  -17.80968
       H    -9.01781  -16.73749  -19.48996
       O    -8.45993  -17.55925  -19.41876
      H1    -9.08999  -18.29977  -19.26475
       H     2.27166  -17.48798  -10.76831
       O     2.74297  -16.83480  -11.31645
      H1     2.01294  -16.43473  -11.83126
       H    -2.29612  -19.34950   -8.21975
       O    -1.99453  -18.40068   -8.13560
      H1    -1.14854  -18.34267   -8.55793
       H     8.01950  -15.46084  -19.04349
       O     7.92083  -14.60559  -19.52958
      H1     8.92180  -14.33024  -19.57780
       H     2.59185  -10.90365  -17.59313
       O     3.42225  -10.78944  -18.12040
      H1     3.96843  -10.22357  -17.55727
       H    -1.27381   -9.69785  -15.53979
       O    -2.11733   -9.66226  -15.01281
      H1    -2.07759   -8.88423  -14.45552
       H    -7.91637  -18.55662  -11.59328
       O    -7.19027  -19.11610  -11.98542
      H1    -6.81930  -18.51649  -12.68914
       H     5.47192  -16.58839  -16.59501
       O     4.78328  -16.78498  -17.33318
      H1     5.37711  -17.44237  -17.85292
       H     3.80627  -12.82777  -10.85369
       O     4.29824  -12.10997  -11.27634
      H1     3.64804  -11.49825  -11.65777
       H    -3.36167  -19.19045  -12.62559
       O    -2.79390  -18.94344  -11.87439
      H1    -3.51995  -18.54612  -11.28234

