180
frame 5 | Written by MDAnalysis XYZWriter (release 2.4.3)
       H   -13.20502  -11.62531    9.35046
       O   -13.41899  -12.23830    8.60859
      H1   -13.63936  -11.74450    7.81391
       H    -4.67474  -16.46298   10.41023
       O    -4.82800  -16.37787    9.42814
      H1    -4.45210  -17.26004    9.06104
       H   -16.14011  -17.19224   16.86378
       O   -15.66140  -17.51878   16.06817
      H1   -16.26221  -18.12672   15.62759
       H   -10.04786  -18.84554   18.49687
       O    -9.92338  -19.78576   18.54960
      H1    -9.11528  -19.95388   18.13612
       H   -11.03493  -14.06310   14.27131
       O   -11.56136  -14.58371   13.68247
      H1   -12.38783  -14.12787   13.44382
       H   -17.25968   -9.77413   11.46150
       O   -17.46605  -10.71112   11.37689
      H1   -18.26527  -10.82291   11.88498
       H    -5.92258  -17.50019   12.68083
       O    -5.18441  -16.89800   12.50679
      H1    -4.42201  -17.19111   13.03578
       H    -6.03615  -16.86122   17.29486
       O    -5.54872  -17.51443   16.83699
      H1    -6.10608  -17.77700   16.10835
       H   -13.62266  -11.15197   15.23419
       O   -13.23489  -11.65199   15.99253
      H1   -12.69855  -10.99978   16.52174
       H   -11.55012  -14.56385   17.67405
       O   -10.84926  -13.94427   17.89730
      H1   -11.17617  -13.46307   18.69337
       H   -10.53311  -18.92528    5.44807
       O    -9.70074  -18.82650    5.04251
      H1    -9.25936  -19.67216    5.11819
       H   -15.47486  -18.19609   11.46935
       O   -15.50467  -17.73069   12.33119
      H1   -14.59311  -17.85043   12.55581
       H    -8.38747  -14.08805   15.93685
       O    -8.47618  -15.01859   16.01588
      H1    -7.91662  -15.26316   15.24204
       H   -14.85929  -12.32025   16.93439
       O   -15.69139  -12.80582   17.01345
      H1   -15.57254  -13.63097   16.49461
       H    -8.02510  -11.10429   10.24764
       O    -7.10069  -11.24414    9.92526
      H1    -7.15563  -11.34565    8.97612
       H    -8.69648  -12.58986   12.06627
       O    -7.96536  -13.11891   12.25317
      H1    -7.44071  -13.10056   11.41029
       H   -10.29327  -10.91038   10.70237
       O    -9.99710  -11.51967   11.40100
      H1   -10.47015  -12.40258   11.22369
       H    -6.06058  -19.48381   14.68279
       O    -6.74722  -18.77297   14.58416
      H1    -7.51108  -19.18994   14.18420
       H    -7.16474  -14.37142   12.89475
       O    -6.78344  -15.12220   13.50114
      H1    -6.21391  -15.71286   13.02065
       H   -18.72691  -15.69805   11.84048
       O   -18.51488  -15.58139   12.77216
      H1   -19.17750  -14.91037   13.08698
       H   -10.65863  -14.85166    8.39129
       O    -9.79133  -15.27348    8.73215
      H1   -10.14123  -16.18096    8.90215
       H   -11.45860  -11.91923   15.13833
       O   -10.78291  -11.97282   14.48104
      H1   -11.02370  -11.32771   13.86575
       H   -12.25529  -16.83653   17.40048
       O   -12.45494  -16.55442   18.28575
      H1   -12.26281  -17.30807   18.85980
       H   -14.91288  -13.67666    9.24379
       O   -15.75343  -14.17659    9.29477
      H1   -15.83495  -14.55105   10.22599
       H   -14.96652  -12.23671   12.67412
       O   -14.95975  -11.36801   12.25087
      H1   -15.79066  -11.28752   11.75487
       H   -12.25942  -17.20080   11.48390
       O   -12.72817  -17.19734   12.38907
      H1   -12.62608  -16.32308   12.79009
       H    -9.46160  -16.22173    4.23598
       O    -9.44307  -15.54658    4.95762
      H1   -10.44608  -15.62991    5.22094
       H    -8.67155  -17.48340   16.86784
       O    -8.98091  -18.30117   16.50516
      H1    -8.56801  -18.43659   15.64070
       H    -3.94025  -13.67649   11.90790
       O    -4.38273  -13.62669   12.77885
      H1    -5.11183  -14.25106   12.75548
       H   -14.71814  -13.91562   12.61302
       O   -14.17931  -13.66281   13.34705
      H1   -14.59077  -14.06803   14.11082
       H   -10.83461  -11.52553    7.00296
       O   -11.10556  -10.62249    6.69956
      H1   -10.34123  -10.17800    6.33850
       H    -7.27247  -18.53879    9.94028
       O    -8.15680  -18.33475    9.58861
      H1    -7.86775  -18.25223    8.64230
       H   -13.11667  -18.04681    7.33648
       O   -13.39308  -17.53223    8.05663
      H1   -14.05336  -18.02573    8.56250
       H   -13.49803  -10.94107   11.08996
       O   -12.84105  -10.57098   10.53306
      H1   -13.15838   -9.70655   10.20735
       H    -9.51200  -12.01000   15.77700
       O    -8.99875  -12.30747   16.59700
      H1    -9.61920  -12.81998   17.12824
       H   -11.04322  -16.14195   14.89734
       O   -11.28131  -16.76705   15.61950
      H1   -10.65847  -17.38797   15.77552
       H    -8.42784  -17.99566    6.42116
       O    -7.56233  -17.99876    6.85880
      H1    -7.34854  -17.04053    7.06031
       H    -8.92552  -16.37609   20.14036
       O    -9.18680  -16.73523   19.27020
      H1    -9.74178  -16.11051   18.80522
       H   -10.39996  -14.57104   10.29846
       O   -10.87703  -13.98466   10.89132
      H1   -10.86737  -14.43009   11.73657
       H   -14.00819  -18.24742   16.27316
       O   -13.12272  -18.59839   16.14410
      H1   -12.57142  -17.79877   15.84890
       H   -15.80874  -19.96571   14.57526
       O   -16.52636  -19.52137   14.11842
      H1   -16.08627  -18.98090   13.43661
       H   -17.23289  -13.33381    9.17994
       O   -17.96426  -12.68522    9.08701
      H1   -17.71385  -11.96068    9.71859
       H   -19.07511  -16.94118    9.80117
       O   -18.91959  -16.02585   10.13658
      H1   -19.43466  -15.42568    9.58206
       H   -16.15594  -18.96076    9.32353
       O   -15.28146  -18.80178    9.75622
      H1   -14.93453  -19.70269    9.95923
       H   -14.51736  -16.20962    7.64213
       O   -15.26037  -15.68424    7.21122
      H1   -15.57335  -15.09291    7.96597
       H    -7.88940  -15.29181    8.08826
       O    -6.96871  -15.41252    7.68692
      H1    -6.42869  -15.82460    8.36289
       H   -16.62770  -15.55775   18.84617
       O   -16.87985  -16.34409   18.30629
      H1   -17.75071  -16.16457   17.93627
       H   -16.88310  -18.28894    6.06489
       O   -16.71821  -17.40305    5.77561
      H1   -16.09421  -16.98376    6.40060
       H    -9.54817   -8.49201   12.72439
       O    -9.91974   -9.24085   13.17451
      H1    -9.92681   -9.96550   12.50917
       H   -11.77135  -12.96021    7.91317
       O   -11.18852  -13.36834    7.28922
      H1   -11.77097  -13.89178    6.67131
       H   -18.96830  -17.39403   12.71104
       O   -19.73388  -18.02821   12.62413
      H1   -19.70772  -18.68450   13.31250
       H    -6.12238  -14.02477   18.91794
       O    -6.17150  -14.65929   18.14994
      H1    -7.14974  -14.81423   18.20084
       H   -13.73665  -13.91824    5.15157
       O   -13.32834  -14.53139    5.75342
      H1   -14.05418  -14.85588    6.26223
       H   -10.66065  -18.05924    9.69632
       O   -11.27328  -17.32347    9.69735
      H1   -11.96970  -17.48453    9.06743
       H   -17.14288  -13.11594   15.07045
       O   -17.95015  -12.66549   14.73345
      H1   -17.67850  -11.79345   14.63793
       H   -11.93523  -19.47256   14.92382
       O   -11.60068  -19.46670   14.05346
      H1   -12.06865  -18.72694   13.64310
       H   -13.17323  -17.11533    3.71301
       O   -12.37894  -16.65084    3.86671
      H1   -12.72267  -16.07706    4.56483
       H   -16.94781  -14.98335   12.38054
       O   -16.11337  -15.08046   11.95150
      H1   -15.88134  -16.04890   11.98129
       H   -16.60398  -15.25158   14.47604
       O   -15.97355  -14.91185   15.11632
      H1   -15.64026  -15.75557   15.51805
       H   -14.26749  -10.19697   13.57000
       O   -14.09780   -9.71679   14.40735
      H1   -13.77197   -8.86536   14.02437

