180
frame 11 | Written by MDAnalysis XYZWriter (release 2.4.3)
       H     9.31297    8.17707    1.22212
       O     9.65248    7.74878    2.03190
      H1     9.64637    8.38541    2.75651
       H     6.57970    9.21328   12.56944
       O     6.86022    9.13293   11.62438
      H1     7.25812    8.27001   11.55850
       H    12.00494    7.42405    7.33929
       O    12.94147    7.38991    7.03120
      H1    12.73996    7.93390    6.18843
       H    16.02998   12.07094    6.14580
       O    16.23854   13.02717    6.16566
      H1    15.62532   13.46675    5.54865
       H    11.13999   12.77879   11.10453
       O    10.65793   13.38853   10.48463
      H1     9.66666   13.21103   10.61928
       H    11.06188    9.76784   10.29283
       O    10.23037    9.38649   10.61586
      H1     9.62220    9.98054   10.14312
       H    13.89311    7.59635    9.81914
       O    14.57552    7.36298    9.15810
      H1    14.10565    7.63480    8.30189
       H     8.79972    4.84325    9.73522
       O     9.76864    4.84135    9.79944
      H1     9.97224    3.89872    9.94886
       H     9.27612    9.82960    4.24981
       O     9.63372    8.94073    4.30990
      H1     8.85266    8.51674    4.75934
       H     5.12971   12.01061    9.52915
       O     5.25809   12.32404   10.43144
      H1     5.04083   11.52646   10.97944
       H     4.42090    9.62380   10.02559
       O     4.25772    9.66461   10.93919
      H1     5.12135    9.34634   11.18328
       H     9.59858   11.72851    0.30074
       O     8.66976   11.85767    0.12998
      H1     8.48248   12.76039    0.29658
       H    14.61328   10.31528   12.86988
       O    15.35988    9.72993   13.14968
      H1    15.91113    9.67126   12.38126
       H    14.93488   13.32748   12.07852
       O    14.13070   13.84599   12.29108
      H1    14.19341   14.58298   11.59757
       H     9.62670   10.03831   13.31774
       O    10.11093   10.33541   14.11505
      H1    10.97289   10.60103   13.82234
       H    12.99423   11.47837   12.98727
       O    13.18703   11.09433   12.06300
      H1    13.72192   11.88051   11.76019
       H    12.18581   15.71685   10.55729
       O    11.33896   16.03639   10.96853
      H1    10.88137   15.23721   10.65075
       H     9.85615   17.05659   11.27333
       O     8.93027   17.16890   11.52656
      H1     8.94713   18.05671   11.84762
       H     8.97226    6.28977   12.54667
       O     8.41653    6.58033   11.79391
      H1     9.20519    6.61308   11.15566
       H    10.56758    8.19011    8.56964
       O    10.45067    7.40329    8.00382
      H1    10.55090    6.62549    8.61353
       H     8.89390   15.26719    2.53641
       O     9.60895   15.81597    2.19195
      H1     9.57478   16.61323    2.73212
       H    11.85072    8.20733   11.68607
       O    12.78133    8.24593   11.34642
      H1    12.93874    9.18159   11.64423
       H     8.87453   13.71145   12.80038
       O     9.23143   14.48150   13.35428
      H1     8.88722   15.24669   12.87491
       H     5.30349    9.20493    8.12513
       O     4.77042    9.96631    8.02845
      H1     4.21566    9.71408    7.32776
       H     9.16502    5.96509    5.86232
       O     9.34755    5.03712    5.72996
      H1    10.23636    4.87986    5.84474
       H    11.61504   12.58960    2.23293
       O    11.54799   11.62497    1.98000
      H1    12.29133   11.32981    2.51847
       H    14.90318   10.39537    5.65458
       O    15.42716   10.34204    6.49952
      H1    15.48620    9.35801    6.54568
       H     2.18396   12.22821    8.64997
       O     3.01257   12.73080    8.52159
      H1     2.79212   13.61688    8.94555
       H     9.11564   13.57048    7.33336
       O     9.10086   14.51032    7.71022
      H1     8.57942   14.91515    6.99542
       H    14.31617   15.37385    9.58274
       O    14.00728   15.74317   10.41890
      H1    14.48951   16.59273   10.46082
       H     6.60135   15.10281    5.97106
       O     7.50064   15.44272    5.66043
      H1     7.62339   14.88253    4.89697
       H    12.35859    4.24536    7.01311
       O    12.19618    4.88527    6.26219
      H1    12.69493    5.60803    6.71084
       H     3.69040   14.35598   12.15772
       O     3.33736   13.78445   11.41903
      H1     4.18392   13.41636   11.07176
       H    10.00647   11.42592    7.48755
       O     9.28161   11.76985    6.91241
      H1     8.76731   10.96350    6.95637
       H     9.37391   18.73614    8.88953
       O     8.77913   18.00065    8.83342
      H1     8.71047   17.65940    9.77188
       H    10.50846   18.00098    4.66420
       O    11.16471   17.45731    4.14120
      H1    11.41460   16.74146    4.70953
       H     8.30343   13.09388    3.58840
       O     7.75757   13.90884    3.24657
      H1     6.83690   13.52240    3.33721
       H     4.35541   10.66908    5.34755
       O     5.31633   10.76903    5.22268
      H1     5.46677    9.95752    4.77865
       H    11.42817    8.71718    4.44291
       O    12.37155    8.73184    4.76000
      H1    12.90554    8.25644    4.04975
       H     7.26502   11.17024    0.97283
       O     6.39706   10.79143    1.10809
      H1     6.56153   10.12466    1.77256
       H    11.28938   14.88412    2.41035
       O    12.01865   14.24258    2.25353
      H1    11.86411   14.19266    1.25939
       H     5.93597   11.86549    7.09724
       O     6.59074   12.27297    7.66412
      H1     6.33196   13.20885    7.44339
       H    13.48843   10.15784    4.39531
       O    14.24450   10.73515    4.20032
      H1    14.68545   10.38023    3.40227
       H     4.88891   15.59552    7.00070
       O     5.41590   14.79153    7.10982
      H1     4.85983   14.15578    6.69428
       H    11.18212   16.87845    8.95940
       O    11.73514   17.29705    8.26876
      H1    11.08363   17.44541    7.51901
       H     7.44201    7.46455    6.79446
       O     7.70444    7.66161    5.86214
      H1     6.95499    7.34715    5.41128
       H    13.80953   16.14704    6.53191
       O    13.19295   15.55455    6.98992
      H1    12.76142   16.17901    7.63387
       H    14.33377   12.15251    8.79213
       O    14.04283   11.21986    8.71863
      H1    14.47124   10.83459    7.99318
       H    10.32005   14.51745    6.45268
       O    10.85283   14.55586    5.64715
      H1    11.75557   14.67629    6.00031
       H     7.27243    8.63920    8.58782
       O     6.55944    7.94131    8.36608
      H1     6.73777    7.27609    9.06473
       H     6.48661    8.04257    3.03948
       O     6.07335    8.92684    3.19737
      H1     5.15018    8.81630    3.23937
       H     6.92691   13.33312    9.83493
       O     7.82005   13.71179    9.95608
      H1     8.03864   13.99431    9.02031
       H     5.54093   15.19234    9.86694
       O     5.84016   15.93221   10.40792
      H1     6.69461   15.59560   10.73407
       H     7.72831   10.76756    8.68653
       O     8.05583   10.02660    9.19400
      H1     7.45767   10.10208    9.92071
       H    13.76412   14.07369    4.28948
       O    14.53299   14.60699    4.45864
      H1    15.18242   14.35204    3.81708
       H    15.45581   14.05204    8.65939
       O    14.50394   13.93965    8.65138
      H1    14.20302   14.46630    7.92106
       H     6.96264   12.51882   12.16890
       O     7.55827   12.19256   12.82499
      H1     7.16697   12.37590   13.68693
       H     9.87839   11.59578    3.36562
       O     9.28421   11.68835    4.10174
      H1     9.84289   12.14797    4.75616
       H    11.39171   11.93597    8.99590
       O    11.30944   11.11926    8.47759
      H1    12.20041   10.95990    8.18889
       H     5.80525   12.13962    2.25970
       O     5.41137   12.56316    3.02758
      H1     5.40036   11.84729    3.65819

