180
frame 4 | Written by MDAnalysis XYZWriter (release 2.4.3)
       H    11.23313  -12.54476   -4.30736
       O    10.37404  -12.83151   -4.66319
      H1    10.23672  -12.25542   -5.42419
       H     6.29769   -4.70428   -4.04344
       O     5.88913   -5.55141   -4.25084
      H1     5.06510   -5.30132   -4.76662
       H     8.12024    1.58103   -2.30570
       O     7.68576    1.17931   -3.05402
      H1     8.29352    0.49200   -3.30115
       H     8.06448   -9.07210   -2.18038
       O     8.26716   -8.92658   -1.17361
      H1     7.36475   -9.09575   -0.80711
       H     5.37426    0.41657   -4.28150
       O     5.49257    0.41707   -5.25167
      H1     5.86177   -0.47871   -5.42474
       H    12.47402   -8.74903   -7.36645
       O    13.40764   -8.97937   -7.62433
      H1    13.85186   -8.57095   -6.92065
       H    16.11884   -5.69846   -4.24936
       O    16.58669   -4.97083   -3.92067
      H1    17.23047   -5.32150   -3.27968
       H    13.23539   -4.35309   -5.26263
       O    13.08678   -5.24582   -5.57806
      H1    12.33562   -5.54378   -5.02694
       H     6.50701   -6.12792  -11.44600
       O     7.18476   -5.44442  -11.63742
      H1     6.90254   -5.10952  -12.53752
       H     9.12821   -5.11583   -4.80725
       O     9.11976   -5.80233   -5.48156
      H1     8.26014   -6.30374   -5.29919
       H    13.01352   -5.73386   -1.50495
       O    13.14581   -4.78683   -1.65984
      H1    14.08152   -4.64539   -1.61262
       H     9.92561   -2.34990  -11.46850
       O     9.81466   -2.27220  -10.48042
      H1     8.90926   -2.56249  -10.26515
       H    13.73448   -8.45594   -3.48310
       O    14.32122   -8.71705   -2.75246
      H1    13.93763   -9.56119   -2.49845
       H    13.71147   -4.76470  -11.09417
       O    13.29397   -3.91183  -11.14581
      H1    12.42467   -4.13276  -10.83656
       H    15.22298   -6.65947   -6.84560
       O    14.96187   -7.18655   -6.07937
      H1    14.18861   -6.60655   -5.88450
       H    11.61121   -7.33805   -0.17659
       O    12.00018   -7.35791   -1.03410
      H1    12.77868   -7.84265   -0.82347
       H     7.94542  -11.30493   -6.77706
       O     6.95976  -11.38465   -6.82798
      H1     6.68649  -10.63805   -7.37090
       H    11.92668   -4.46891   -0.28773
       O    11.41131   -4.14129    0.43981
      H1    11.04042   -3.28948    0.11883
       H     1.68283   -5.41846   -2.69132
       O     2.30274   -4.70383   -2.91971
      H1     2.69737   -4.57489   -2.09103
       H     2.97602   -2.65364   -0.48711
       O     3.51713   -3.37870   -0.82718
      H1     4.30413   -3.20880   -0.34419
       H     8.34394   -4.87100   -6.75284
       O     8.12231   -4.38145   -7.55748
      H1     8.87708   -3.76569   -7.57695
       H     5.42929   -2.81840   -6.45714
       O     6.28795   -2.52531   -6.72261
      H1     6.65722   -3.25969   -7.22764
       H     4.14177   -8.31695   -7.22978
       O     3.58837   -8.41038   -8.04915
      H1     3.79463   -9.28249   -8.39594
       H    13.39323   -2.27196   -1.16514
       O    13.72799   -1.56798   -0.58570
      H1    14.26956   -1.08795   -1.21685
       H     8.43715   -7.10152   -1.02172
       O     8.29959   -6.14230   -0.85082
      H1     7.63471   -6.17612   -0.19417
       H     3.11140   -3.94371   -4.63430
       O     3.52331   -4.18335   -5.49038
      H1     3.07748   -5.01246   -5.72395
       H     5.75300   -8.18985   -5.84054
       O     4.87768   -8.47568   -5.61327
      H1     5.02355   -8.72503   -4.69602
       H     1.98508   -1.97931   -6.98800
       O     2.94995   -1.92047   -7.21227
      H1     3.34473   -2.77673   -6.90455
       H     4.77529   -6.96876    1.29126
       O     5.45871   -6.56631    0.72694
      H1     5.53181   -5.68365    1.15816
       H    10.26940  -11.90502   -7.53511
       O     9.75469  -11.29375   -6.88725
      H1    10.38173  -10.56122   -6.78565
       H     4.80020   -6.35954   -2.31125
       O     4.31023   -6.95904   -1.72809
      H1     4.75015   -6.77586   -0.84844
       H     6.50392   -1.21852  -10.18108
       O     6.01978   -0.50172  -10.66080
      H1     5.48485   -1.06851  -11.24196
       H    10.31409   -1.20730    0.15411
       O    10.32709   -1.67943    1.03639
      H1    10.87690   -1.06408    1.55189
       H    11.43916    0.98005   -6.25936
       O    10.51107    1.18184   -5.93429
      H1     9.97481    0.87312   -6.68698
       H     8.88470   -4.96335   -1.95465
       O     8.99069   -4.31240   -2.66786
      H1     9.77494   -3.74177   -2.47041
       H    15.06022   -3.52186   -7.98007
       O    15.65125   -2.92758   -7.39623
      H1    16.38382   -3.36958   -7.05432
       H    10.43406   -6.56362   -9.07663
       O     9.64181   -6.79854   -8.58209
      H1     9.24413   -5.88862   -8.51042
       H    10.33168   -4.03671  -10.10279
       O    10.89851   -4.83852  -10.21391
      H1    10.62645   -5.19828  -11.07830
       H    10.54876   -6.29286   -4.25857
       O    11.35634   -6.79375   -4.01413
      H1    11.39894   -6.67152   -3.06525
       H     9.24372   -8.25704   -9.54666
       O     9.09083   -9.12432  -10.01113
      H1     8.88918   -8.84063  -10.88678
       H    10.76704   -1.59121   -2.58772
       O    10.90841   -2.38376   -2.08034
      H1    11.48370   -2.84654   -2.68397
       H     6.18530   -1.74135    0.51439
       O     6.09219   -2.69231    0.47764
      H1     6.29117   -2.74750   -0.46691
       H     7.17170   -2.59503   -4.88363
       O     6.97608   -2.56896   -3.88062
      H1     7.78030   -2.91051   -3.55330
       H     9.42076  -10.02177   -3.24043
       O     8.74188   -9.47637   -3.58842
      H1     8.06232  -10.11788   -3.76745
       H    12.57819   -2.06222   -4.02870
       O    12.26331   -2.86768   -4.41867
      H1    11.57082   -2.59212   -5.04901
       H    12.78016   -4.57970   -7.35192
       O    12.82624   -3.84496   -7.99983
      H1    12.80172   -4.23974   -8.87116
       H    11.36723   -2.94700   -7.29316
       O    10.52027   -2.80369   -6.78820
      H1    10.20355   -1.87788   -6.99704
       H    10.28143   -7.69920   -7.10606
       O    10.76322   -8.41045   -6.65950
      H1    10.94480   -8.01703   -5.81073
       H     6.65486   -3.84842  -10.51945
       O     7.10695   -3.22815   -9.86148
      H1     7.18105   -3.88715   -9.17011
       H    13.39496   -0.10454   -5.17719
       O    13.19492   -0.26664   -4.22337
      H1    12.41940    0.29886   -4.11729
       H     9.13447  -10.83746   -0.99186
       O     9.54616  -11.58486   -1.48084
      H1     8.91109  -12.27117   -1.23488
       H     4.10270   -5.78107   -8.40812
       O     4.75369   -5.30959   -8.97052
      H1     4.26558   -4.46900   -9.05985
       H     4.77578   -8.50309   -2.37138
       O     5.02755   -9.24535   -2.90858
      H1     4.34048   -9.87569   -2.72120
       H     4.92915   -6.96406  -10.16729
       O     5.40800   -7.58159  -10.83916
      H1     4.79781   -7.76922  -11.52704
       H    10.38972   -5.69366    1.23400
       O    10.52487   -6.66594    1.25060
      H1     9.82370   -7.02981    0.72282
       H     6.20586  -10.18420   -3.72966
       O     6.63373  -10.89235   -4.25089
      H1     6.48261  -10.56198   -5.16588
       H    10.37928    1.00988   -3.02288
       O    10.29787    0.22626   -3.54235
      H1    10.26408    0.69100   -4.43757
       H     9.10560   -0.27193   -8.55681
       O     8.80761   -0.56422   -7.68617
      H1     7.87009   -0.51024   -7.73641
       H     7.52603   -9.25870   -9.14989
       O     6.59001   -9.44008   -8.88559
      H1     6.25465   -8.69993   -9.46491
       H     7.89461   -8.21036   -7.10549
       O     7.70693   -8.19595   -6.15578
      H1     8.47727   -8.58385   -5.65680

