180
frame 8 | Written by MDAnalysis XYZWriter (release 2.4.3)
       H    -3.58553   -6.40769    4.58732
       O    -3.99924   -5.60563    4.31897
      H1    -4.40027   -5.09193    5.00202
       H    -7.69277   -9.54924    8.36764
       O    -8.10544  -10.38738    8.23275
      H1    -8.31333  -10.64176    9.18133
       H    -8.48787  -11.39211   11.58221
       O    -8.95268  -11.14093   10.70548
      H1    -9.37038  -10.36199   11.13953
       H    -3.87760   -0.89239    9.42638
       O    -4.22568   -1.55205    8.85598
      H1    -4.40955   -1.08447    8.01395
       H   -10.04934   -2.19559    8.44511
       O    -9.86884   -2.59828    7.54701
      H1   -10.13257   -3.52237    7.59056
       H    -6.99904  -11.65945   15.83485
       O    -6.13464  -11.30243   15.68711
      H1    -6.06310  -11.17353   14.74998
       H    -6.87925   -8.33220   11.46517
       O    -6.51709   -8.00392   10.61940
      H1    -7.26470   -7.44117   10.22356
       H    -5.78071   -4.29245   16.55788
       O    -5.53542   -4.63113   15.68071
      H1    -5.93918   -3.96321   15.08567
       H    -0.97428   -2.45411   10.52618
       O    -1.06779   -3.40357   10.41363
      H1    -1.46365   -3.39217    9.54752
       H    -6.06372   -2.05841   10.08131
       O    -6.87351   -2.54738   10.17674
      H1    -7.39227   -1.89981   10.70190
       H   -10.33276   -0.90885   10.50184
       O   -10.84396   -0.89722    9.69357
      H1   -11.63243   -0.48292   10.08041
       H    -7.74861   -9.67762   13.21417
       O    -7.62492   -8.79561   12.83607
      H1    -8.54889   -8.54574   12.70763
       H    -4.82820  -10.91457   12.82458
       O    -4.27701  -11.03472   13.64794
      H1    -3.42860  -11.29910   13.30949
       H    -2.76442   -7.94866   16.16618
       O    -3.34846   -7.30216   16.58181
      H1    -4.03580   -7.89883   16.92754
       H    -1.86017    1.28076   12.83616
       O    -2.65136    1.14318   12.24150
      H1    -3.43547    1.12104   12.86102
       H    -5.18269   -5.81838   17.40084
       O    -5.41400   -5.62334   18.31340
      H1    -6.38210   -5.62006   18.29175
       H    -5.39740   -7.34574    7.22357
       O    -5.82324   -8.14511    7.60124
      H1    -5.14749   -8.55712    8.19077
       H    -7.21327   -7.83797   14.25785
       O    -7.06256   -7.14858   14.93128
      H1    -6.17789   -6.80101   14.71656
       H   -10.54195   -6.73720    6.83344
       O   -11.36296   -6.89351    7.40102
      H1   -12.07819   -6.48417    6.91970
       H    -5.12702   -9.69886   17.91994
       O    -5.11483   -9.09049   17.14274
      H1    -5.34561   -9.61744   16.37831
       H    -3.63593   -7.96528    9.45935
       O    -4.19355   -8.82997    9.46479
      H1    -4.96982   -8.41948    9.92856
       H   -11.21378   -0.08352   13.49069
       O   -11.06186   -0.94726   13.90152
      H1   -10.16071   -1.16014   13.70127
       H    -8.78766   -7.07920   15.82071
       O    -9.64105   -7.40852   16.07857
      H1    -9.47091   -8.29208   16.36316
       H   -12.38805   -6.78427   10.36502
       O   -11.59454   -7.26253   10.07418
      H1   -11.53375   -7.07870    9.11083
       H    -9.10199   -3.78500   13.14250
       O    -9.09693   -2.86633   13.57283
      H1    -8.36388   -2.97616   14.20664
       H    -5.53759   -2.91650   18.65102
       O    -5.73971   -2.51424   17.81690
      H1    -4.91974   -2.28816   17.49134
       H     0.03334   -2.26784   13.08654
       O    -0.76744   -2.79144   13.13209
      H1    -0.60040   -3.43193   12.42222
       H    -6.81310   -4.96388   11.65454
       O    -6.35331   -5.68392   12.06417
      H1    -6.43325   -6.33993   11.34924
       H    -6.72147   -1.81271   14.80271
       O    -7.24382   -1.78183   15.63514
      H1    -6.56153   -2.18226   16.19365
       H   -11.19312   -7.85174   13.32018
       O   -11.34358   -7.16362   13.97912
      H1   -10.97566   -7.54019   14.78172
       H    -9.72595   -1.23707   17.60353
       O    -9.29225   -0.58590   17.03790
      H1    -8.64132   -1.17624   16.59273
       H    -9.13665    1.16940    9.19548
       O    -8.30721    1.39152    8.72278
      H1    -7.67768    1.24496    9.43499
       H    -2.69897   -1.84195   13.85258
       O    -3.60843   -1.77774   14.10870
      H1    -3.45150   -1.60258   15.06199
       H    -8.55418   -3.39341   10.13269
       O    -9.50334   -3.55383   10.30250
      H1    -9.41710   -4.47836   10.54265
       H    -6.06792    1.40138   12.90764
       O    -5.53550    0.78689   12.30087
      H1    -6.04885    0.94178   11.48937
       H   -12.34254   -6.23549   15.20285
       O   -12.85516   -5.57031   15.78892
      H1   -13.55758   -6.09799   16.12845
       H   -10.81755   -8.29585   11.32947
       O   -10.48921   -8.94773   11.94704
      H1   -11.20285   -9.54603   12.14564
       H    -0.23661   -6.77497   13.18697
       O    -1.15957   -6.48429   12.99943
      H1    -1.39918   -5.87753   13.71641
       H    -8.95589   -6.17395    8.99771
       O    -8.72866   -6.29918    9.89746
      H1    -9.47197   -6.77106   10.28352
       H    -7.27501   -8.63518   19.34877
       O    -7.69142   -8.33901   18.55573
      H1    -6.99688   -8.34154   17.86221
       H    -8.56014   -5.91051    6.03651
       O    -8.78986   -5.69669    6.99549
      H1    -8.18282   -4.97592    7.17315
       H    -7.03951   -2.77383    6.74613
       O    -6.93843   -3.44978    7.41326
      H1    -6.91934   -2.91987    8.20384
       H   -11.27249   -3.19910   10.21122
       O   -12.21637   -3.31397   10.26844
      H1   -12.44874   -2.71627   11.04698
       H    -8.56703   -1.68670   12.56273
       O    -8.49819   -1.02627   11.83821
      H1    -7.85245   -0.35509   12.13790
       H    -9.34323  -11.91265   13.62570
       O    -8.45882  -11.55232   13.35647
      H1    -7.99028  -12.35053   13.67491
       H    -4.24157   -4.72041    7.51764
       O    -4.87960   -5.14442    6.85430
      H1    -5.52952   -4.46569    6.95634
       H    -1.78591   -0.36437   11.35306
       O    -1.02256   -0.74316   10.86696
      H1    -0.31018   -0.13632   11.18698
       H    -3.23695   -3.18715    6.04068
       O    -2.71571   -2.43658    5.68774
      H1    -2.21191   -2.79667    4.90187
       H    -5.06982   -1.95403   13.44969
       O    -6.01083   -2.25488   13.19926
      H1    -6.04913   -2.00740   12.29841
       H   -14.10208   -5.41694   11.76610
       O   -13.77793   -5.42918   10.80351
      H1   -13.13773   -4.63817   10.88589
       H    -3.60648   -4.35459    9.41996
       O    -3.18872   -3.96813    8.65709
      H1    -3.55282   -3.10102    8.62654
       H    -8.43555    0.31777    6.55810
       O    -8.58422   -0.43502    5.99066
      H1    -9.10372   -1.02801    6.55462
       H    -3.44227   -5.18032   11.59211
       O    -4.11826   -5.19426   10.89766
      H1    -4.93646   -5.28611   11.40619
       H    -4.93286    1.51409    9.57169
       O    -5.57507    0.89449    9.28996
      H1    -5.90731    1.22274    8.42423
       H   -12.24178   -1.99425   13.12207
       O   -13.08797   -2.25179   12.65402
      H1   -13.13198   -3.17700   12.94128
       H   -10.08619   -6.08583   13.32773
       O    -9.39683   -5.59097   12.85861
      H1    -8.61678   -5.73933   13.45495
       H    -8.71667   -5.53058   17.79963
       O    -7.96811   -5.64547   18.41634
      H1    -7.93124   -6.60704   18.30739
       H    -4.56142  -10.58471   10.25135
       O    -4.61573  -11.25131   10.95973
      H1    -3.69056  -11.44669   11.01141
       H    -0.00305   -6.38262   10.55856
       O    -0.75032   -6.99904   10.34757
      H1    -1.36486   -6.75730   11.06491
       H    -3.00175   -5.67334   15.53502
       O    -2.60501   -4.80621   15.40037
      H1    -3.30848   -4.31110   15.00143

