180
frame 1 | Written by MDAnalysis XYZWriter (release 2.4.3)
       H   -15.90037    3.74083   19.45651
       O   -15.90213    2.82144   19.13364
      H1   -16.39816    2.77944   18.28625
       H   -15.47329  -10.45788   12.55486
       O   -15.20254  -10.15777   13.43284
      H1   -15.03429   -9.23891   13.21879
       H   -16.95040   -0.28499   11.73553
       O   -16.30989   -0.00538   12.37935
      H1   -16.81983    0.21216   13.19154
       H   -10.98007   -2.86353   16.18008
       O   -11.28475   -1.96488   16.38501
      H1   -10.54792   -1.35498   16.40068
       H   -17.72356    3.48008   16.52321
       O   -17.05232    2.80786   16.68600
      H1   -16.26110    3.38204   16.58962
       H   -19.11548   -6.11750   16.19085
       O   -19.73603   -6.52266   16.82256
      H1   -19.60831   -7.45169   16.63308
       H   -14.07904  -12.39371   16.53649
       O   -13.72941  -12.24672   15.70284
      H1   -13.93140  -13.09958   15.25237
       H   -18.69618   -1.94516   14.46483
       O   -18.97947   -2.15358   13.58545
      H1   -18.91392   -3.11047   13.67260
       H   -14.41239   -0.46246    9.92546
       O   -13.92411   -1.30483    9.90038
      H1   -14.51184   -1.79414    9.29569
       H   -11.22236   -5.24958   15.98530
       O   -10.99163   -4.60628   16.65222
      H1   -11.80032   -4.53762   17.21774
       H   -14.60947  -13.77935   18.61059
       O   -14.47263  -14.41447   17.92650
      H1   -13.60262  -14.24188   17.51999
       H    -7.89131   -8.82318   13.55082
       O    -8.37452   -8.04977   13.81467
      H1    -8.97914   -8.49866   14.38993
       H   -16.77930  -11.79272   16.21301
       O   -16.85431  -11.49272   15.29365
      H1   -15.97250  -11.44207   15.00632
       H    -7.34429   -4.82854   18.85322
       O    -6.45483   -4.68931   19.16318
      H1    -6.57641   -5.03608   20.07181
       H    -9.52985   -1.42114   19.24426
       O   -10.15062   -2.18597   19.43530
      H1   -10.56283   -2.40223   18.57226
       H   -14.50345    1.76516   19.03111
       O   -13.89498    1.01916   18.92365
      H1   -14.51717    0.32012   19.28818
       H    -7.16011   -7.90270   16.41963
       O    -7.53694   -6.97618   16.31440
      H1    -8.14851   -7.08531   15.48531
       H   -11.21670    1.48700   13.28472
       O   -10.74798    0.97246   13.91281
      H1   -10.40018    0.17165   13.44709
       H   -16.55180    1.78733   15.53471
       O   -16.49541    0.99276   14.93034
      H1   -15.69823    0.54256   15.26458
       H    -9.24987   -8.45842   18.04024
       O   -10.18423   -8.84346   17.98636
      H1   -10.07740   -9.81043   18.22850
       H   -19.31528   -6.36482   11.91375
       O   -18.36922   -6.39169   12.05026
      H1   -18.25496   -7.09563   12.67840
       H   -17.22987  -10.95264    9.61209
       O   -16.95919  -11.17307    8.74506
      H1   -17.48485  -10.57502    8.19783
       H   -14.44790   -5.99214   11.14805
       O   -14.35238   -6.70752   10.52129
      H1   -14.02292   -6.31495    9.68612
       H   -13.55426   -2.49577   18.93994
       O   -13.23058   -2.56895   19.87837
      H1   -12.61034   -1.82325   19.77291
       H    -9.26366   -4.13818   13.52656
       O    -8.97274   -3.92217   14.41370
      H1    -9.72779   -4.09562   14.97500
       H   -18.00076    0.47062   17.41214
       O   -18.64809   -0.06395   17.86506
      H1   -18.37845   -0.89645   17.50439
       H   -18.44234  -10.64421   12.18958
       O   -17.84144  -11.04742   11.58309
      H1   -17.81179  -11.98633   11.85377
       H   -18.30120   -5.22310   13.73528
       O   -18.41645   -4.71102   14.51931
      H1   -17.84761   -3.94747   14.58197
       H   -13.60603   -0.65689   14.72137
       O   -14.00769   -0.50215   15.58994
      H1   -13.53225    0.21246   15.98072
       H   -14.28525   -5.65794   17.94290
       O   -13.38727   -5.69041   17.52867
      H1   -13.00342   -6.26727   18.20206
       H   -13.31419   -7.45639   12.22145
       O   -13.79971   -7.66588   13.06581
      H1   -13.30630   -7.18926   13.75319
       H   -15.10402   -8.88293   15.91968
       O   -14.21385   -8.70484   16.37371
      H1   -13.64645   -9.23049   15.73368
       H   -13.35290   -8.33908   17.95553
       O   -12.71148   -8.27745   18.68428
      H1   -11.93819   -8.63107   18.29159
       H   -11.22217   -8.92341   14.90125
       O   -10.60065   -8.25206   15.21904
      H1   -10.45568   -8.66450   16.07969
       H   -14.83960   -4.05842   13.01666
       O   -14.68156   -4.27405   12.10019
      H1   -13.80865   -3.82891   11.88974
       H   -11.34389  -14.21713   16.37500
       O   -11.57243  -14.09875   17.34275
      H1   -11.07040  -13.30956   17.62302
       H   -11.84662   -7.09379   15.30412
       O   -12.50646   -6.38506   15.02409
      H1   -13.19359   -6.31344   15.73627
       H   -13.26473   -9.80527   13.94360
       O   -12.46922  -10.30190   14.16441
      H1   -12.82011  -11.07254   14.67133
       H   -18.38631  -13.22857   16.77978
       O   -17.99808  -12.75198   17.51470
      H1   -18.70636  -12.14744   17.69363
       H   -17.86286  -10.26393   14.44230
       O   -18.46703   -9.61027   14.22971
      H1   -17.83393   -8.86383   14.16513
       H   -17.00982   -3.74777   19.70296
       O   -17.40639   -3.86440   18.83150
      H1   -18.27868   -4.13117   19.09650
       H   -16.28224   -4.49197   10.93318
       O   -16.97199   -4.65587   10.27426
      H1   -17.54297   -5.24497   10.87260
       H   -12.30185   -2.66523   10.47127
       O   -12.32001   -3.33836   11.16433
      H1   -11.35561   -3.62210   11.13184
       H   -14.20569   -2.39800   15.04117
       O   -14.39738   -3.31903   14.91173
      H1   -13.70043   -3.71551   15.48681
       H   -15.56305   -3.53967    8.43421
       O   -16.07924   -2.76373    8.39620
      H1   -15.85973   -2.34295    7.55846
       H   -14.31640  -15.44301   13.64219
       O   -14.15822  -14.69802   14.23249
      H1   -14.82825  -14.09826   13.92427
       H   -18.78240  -15.16254   19.30553
       O   -17.89895  -15.14346   19.77763
      H1   -17.45222  -14.69428   18.99782
       H   -15.86461   -6.68676   17.91105
       O   -16.15846   -5.99779   17.26483
      H1   -16.62402   -5.38496   17.85974
       H   -15.33875   -2.48006   17.00475
       O   -14.82225   -2.01861   17.69900
      H1   -14.36343   -1.32231   17.16827
       H   -13.95690    0.91625   11.85457
       O   -14.03439    1.42994   11.09457
      H1   -14.90680    1.79085   11.13528
       H   -17.46483  -14.20778   13.25643
       O   -17.15588  -13.30962   13.10952
      H1   -17.28726  -12.74354   13.94435
       H   -16.77286   -6.04173    9.35505
       O   -16.93451   -6.90079    8.92407
      H1   -16.13933   -7.42786    9.15910
       H    -9.97567  -11.99967   18.65613
       O   -10.62947  -11.52985   18.13392
      H1   -11.42879  -11.64196   18.64470
       H   -13.24718   -1.63681   12.50543
       O   -13.56863   -0.99740   13.15206
      H1   -14.42792   -0.80633   12.77483
       H   -16.61272   -6.55556   15.18079
       O   -16.63812   -7.21916   14.44711
      H1   -15.77506   -7.03058   14.03285
       H    -8.28837   -3.60654   11.77520
       O    -9.19415   -3.97974   11.71273
      H1    -8.90425   -4.59306   11.01775
       H    -9.26418   -3.84650   18.83786
       O    -9.21671   -4.77867   18.61182
      H1    -9.86935   -4.79066   17.90615
       H   -19.29505   -2.44580   16.58706
       O   -18.31224   -2.45032   16.51326
      H1   -18.11784   -2.97574   17.34215
       H   -13.16179    1.72083   17.52911
       O   -13.04517    2.07007   16.62027
      H1   -12.07319    2.17734   16.50714
       H   -18.61280   -7.68256    9.44718
       O   -19.54434   -7.80124    9.33978
      H1   -19.60080   -7.92784    8.40500

