180
frame 0 | Written by MDAnalysis XYZWriter (release 2.4.3)
       H    -5.51068  -15.74288   -2.67844
       O    -4.84601  -16.30465   -3.03736
      H1    -4.12719  -15.58677   -3.01269
       H   -12.43099   -8.68346   -2.75631
       O   -12.45553   -9.52972   -3.19713
      H1   -11.52603   -9.81482   -3.10544
       H    -0.78229  -13.19368    1.62709
       O    -1.60802  -13.63623    1.64013
      H1    -2.02972  -13.21021    2.42595
       H    -3.50770  -16.88985   -5.71209
       O    -3.24799  -15.96779   -5.75549
      H1    -2.91856  -15.77500   -4.90383
       H    -5.82770   -8.77254   -4.62252
       O    -6.40039   -8.92994   -3.86203
      H1    -7.09675   -8.28107   -4.01823
       H    -5.61197  -13.68909    0.82145
       O    -5.10053  -12.92127    0.59745
      H1    -4.68594  -12.72377    1.44798
       H    -7.15753  -13.13641    2.20934
       O    -7.77261  -13.83683    2.20255
      H1    -7.39569  -14.45000    2.88015
       H    -9.69594   -9.73678    2.83069
       O    -9.31943  -10.24807    3.60130
      H1    -9.22728   -9.57670    4.29223
       H   -10.09474  -15.24581    0.20470
       O   -10.05273  -14.74474    1.05373
      H1    -9.06304  -14.58724    1.15216
       H    -7.72888  -10.78795    2.85846
       O    -6.75654  -10.98304    2.92725
      H1    -6.66747  -11.24833    3.84407
       H   -10.40159  -16.15595    4.08610
       O    -9.77294  -15.41763    3.99912
      H1   -10.04197  -14.97166    3.19872
       H    -8.52325  -11.70047   -2.81101
       O    -7.72796  -12.08563   -2.43922
      H1    -7.56650  -11.36286   -1.80252
       H    -2.57109  -14.15164   -2.25416
       O    -2.78411  -14.39739   -3.19076
      H1    -2.67058  -13.51400   -3.55000
       H   -11.14443  -13.68551   -2.73861
       O   -11.38967  -13.80439   -3.66772
      H1   -10.75253  -14.55751   -3.86885
       H    -0.68697  -16.68143   -3.44835
       O    -0.33751  -15.85696   -3.78941
      H1    -1.17581  -15.34328   -3.66484
       H    -2.52980  -10.53926    2.51578
       O    -1.91556   -9.83829    2.78562
      H1    -2.49558   -9.01291    2.84672
       H    -6.81179  -13.64683   -1.74200
       O    -6.82235  -14.62833   -1.79969
      H1    -6.34175  -14.79204   -0.92821
       H    -4.57046  -18.10965   -1.54522
       O    -4.76533  -19.01286   -1.81991
      H1    -5.44283  -18.76181   -2.40919
       H    -4.90663  -15.98621    0.48833
       O    -5.78490  -15.57956    0.50638
      H1    -6.39676  -16.20313    0.87912
       H    -7.20978   -7.09755   -1.86735
       O    -8.03560   -7.40062   -1.40546
      H1    -7.92749   -6.83028   -0.64555
       H   -13.07155  -10.42508   -1.08775
       O   -13.32684  -10.72887   -0.20441
      H1   -13.23429  -11.68771   -0.26928
       H    -1.25100  -13.08412   -5.43943
       O    -1.35023  -12.51120   -4.65043
      H1    -1.92012  -11.80549   -4.90608
       H    -6.92869  -14.30832   -8.46093
       O    -7.90190  -14.26638   -8.75714
      H1    -8.12105  -13.28152   -8.59197
       H    -6.51183  -12.15843   -4.51785
       O    -5.97473  -11.41651   -4.88099
      H1    -6.22557  -10.69385   -4.30400
       H    -8.93448  -14.91926   -7.34036
       O    -9.68189  -15.11531   -6.75062
      H1    -9.81229  -14.26726   -6.26966
       H    -8.07017  -18.87595   -2.87146
       O    -7.14619  -18.66129   -3.21323
      H1    -7.39856  -18.22528   -4.03584
       H    -8.41040  -15.22208   -3.09106
       O    -9.05572  -15.43574   -3.80967
      H1    -8.44568  -15.44769   -4.58276
       H    -1.28859  -12.10195   -0.79862
       O    -0.37486  -11.93711   -1.06539
      H1    -0.13937  -12.86612   -1.04876
       H    -6.91651  -11.04734   -8.22146
       O    -7.66928  -11.58034   -7.96000
      H1    -7.66323  -11.46144   -7.00212
       H   -13.76311  -14.09179    0.04944
       O   -14.06303  -13.33853   -0.47546
      H1   -14.95513  -12.99698   -0.23840
       H    -8.84610   -9.79403   -2.06901
       O    -9.66605   -9.80067   -2.55102
      H1    -9.39259   -9.78906   -3.50108
       H   -10.36475  -12.52659   -5.07681
       O   -10.15637  -12.36682   -6.00323
      H1   -10.95152  -11.96139   -6.33179
       H    -9.08098  -18.86365   -0.15288
       O    -8.95717  -19.87535   -0.11586
      H1    -7.97634  -19.93566   -0.40834
       H   -10.47019   -8.22962   -5.14487
       O    -9.55908   -8.58698   -5.18984
      H1    -9.60820   -9.26445   -5.92542
       H    -7.04763  -15.62044    4.75215
       O    -6.67574  -15.48308    3.90192
      H1    -6.68087  -16.39560    3.50404
       H    -3.69437  -13.43399   -0.34842
       O    -2.79078  -13.49288   -0.71576
      H1    -2.27651  -13.53576    0.08948
       H   -10.55171  -13.73650   -0.09883
       O   -10.51322  -13.33941   -0.98749
      H1    -9.58105  -13.18587   -1.12998
       H    -3.75698  -12.27499   -6.27787
       O    -3.42794  -12.66548   -7.09997
      H1    -3.89429  -13.48784   -7.22126
       H    -6.11148  -18.17907    2.32305
       O    -6.97288  -17.76153    2.37213
      H1    -7.45043  -18.30203    3.03077
       H    -8.18195  -12.77709    5.30514
       O    -8.87928  -13.29860    5.69869
      H1    -9.05190  -13.99299    5.07391
       H   -11.87982   -8.17758   -0.46317
       O   -11.06514   -8.43836   -0.00106
      H1   -10.77585   -9.16314   -0.58478
       H    -7.44201   -8.92484   -0.84043
       O    -7.52398   -9.87946   -0.79817
      H1    -6.97098  -10.14944   -0.08046
       H    -4.32599  -11.00086   -4.84000
       O    -3.37302  -10.70722   -4.75159
      H1    -3.32753  -10.11229   -5.50787
       H   -12.62085  -17.62087    0.65711
       O   -11.89791  -17.33646    1.23165
      H1   -11.32207  -18.18874    1.27073
       H    -9.45059  -16.44019    1.15490
       O    -8.97355  -17.14440    0.63344
      H1    -8.17528  -17.31159    1.18485
       H    -2.51790  -17.19504    0.78278
       O    -3.22021  -16.54158    1.00488
      H1    -3.54599  -16.94797    1.83576
       H    -4.16791  -18.72848   -4.98862
       O    -4.36162  -18.40321   -5.87624
      H1    -5.35087  -18.24500   -5.92969
       H    -4.68844   -9.38802   -2.28774
       O    -3.76086   -9.65511   -2.23463
      H1    -3.65869  -10.01828   -3.13276
       H    -4.18748  -17.71624    4.46454
       O    -4.33395  -17.22795    3.60678
      H1    -4.95362  -16.51014    3.94211
       H    -3.09297  -11.89030    4.21531
       O    -3.57119  -12.52227    3.62965
      H1    -4.38346  -12.77220    4.10566
       H    -1.45980  -15.06596   -6.34782
       O    -1.03329  -14.37796   -6.85903
      H1    -1.81922  -14.02597   -7.29405
       H    -7.47924  -18.00707   -7.18766
       O    -7.25958  -17.91981   -6.22340
      H1    -6.86784  -17.01900   -6.20199
       H    -4.62184  -15.81346   -8.45735
       O    -5.10217  -14.99744   -8.12234
      H1    -4.75120  -14.36267   -8.81969
       H    -4.45712   -8.40000    0.78802
       O    -4.66984   -9.31968    0.60378
      H1    -4.17261   -9.54306   -0.15888
       H    -2.48717  -16.35340    3.81247
       O    -1.67103  -15.81850    3.91776
      H1    -1.42637  -15.49574    3.04014
       H   -12.76482  -15.37395    1.91444
       O   -13.42089  -14.61760    1.99273
      H1   -12.88827  -13.89412    2.33153
       H    -1.38485  -18.95564   -3.64321
       O    -0.57972  -18.54685   -3.23224
      H1     0.04442  -18.76509   -3.96049
       H    -5.44035  -15.42532   -6.02126
       O    -6.13215  -15.45511   -5.36310
      H1    -5.59704  -15.66606   -4.61403
       H   -12.57876  -15.70455   -3.37724
       O   -12.48369  -16.67982   -3.39830
      H1   -11.54854  -16.85352   -3.41321
       H    -9.95185  -18.99038   -4.16932
       O   -10.18317  -18.25930   -3.57225
      H1    -9.98891  -17.42345   -4.01943

