180
frame 10 | Written by MDAnalysis XYZWriter (release 2.4.3)
       H     2.39536    3.69695   -9.04010
       O     1.99923    4.53133   -9.22765
      H1     1.03034    4.37711   -9.10285
       H    -2.32401   10.19971   -2.35706
       O    -2.26020    9.90143   -3.29647
      H1    -2.34167   10.72006   -3.75173
       H    -5.89552    2.66282   -5.60363
       O    -5.81213    3.56828   -5.32758
      H1    -5.23637    4.03873   -5.95225
       H     5.11581    8.50905   -6.16977
       O     4.26374    8.67342   -5.67848
      H1     3.58420    8.67722   -6.38220
       H    -4.20410    8.39662    0.95419
       O    -3.76650    7.70826    0.50054
      H1    -3.45877    7.14229    1.22430
       H    -0.97150    4.61211   -4.42114
       O    -0.04171    4.23205   -4.51883
      H1     0.55925    4.93213   -4.17839
       H     1.94440   10.53144    1.18589
       O     1.07386   10.11572    1.11373
      H1     1.09260    9.76152    0.18740
       H    -0.02582    8.08292   -8.75406
       O    -0.25080    7.51818   -8.00757
      H1    -0.53805    8.16638   -7.31715
       H    -3.35300    4.77681   -3.95071
       O    -2.67220    5.38121   -4.25127
      H1    -3.02709    5.61721   -5.08578
       H     3.81976   12.27460   -2.93521
       O     4.65800   11.70118   -3.04549
      H1     4.65593   11.52215   -4.02127
       H    -2.94472   -0.47727   -3.74705
       O    -2.29596   -0.82489   -3.11527
      H1    -1.63163   -0.10566   -3.20728
       H    -4.78024    4.67156   -2.19253
       O    -4.53413    3.85338   -2.67584
      H1    -5.15092    3.92523   -3.39261
       H     0.76722    6.44677   -3.07396
       O     1.60828    6.11038   -3.42411
      H1     1.90522    5.50372   -2.71530
       H     3.33335    7.49019    2.54881
       O     3.60919    8.19675    3.16958
      H1     2.75102    8.45562    3.53532
       H    -1.97291    2.12578   -6.78842
       O    -2.65907    2.44126   -7.39978
      H1    -2.19953    2.10585   -8.16630
       H    -1.36328   10.05671    1.70375
       O    -1.53524   10.19784    2.62611
      H1    -0.91305    9.67586    3.11877
       H     2.66198   11.75311   -1.43607
       O     1.84372   12.17056   -1.82943
      H1     1.68553   11.47105   -2.55611
       H    -6.53369    6.14351   -1.20642
       O    -5.55756    6.10925   -1.57023
      H1    -5.24387    6.79583   -0.91841
       H    -3.96236    9.62501    2.44396
       O    -4.88543    9.70583    2.12141
      H1    -5.36583    9.55957    2.95787
       H    -6.20897    9.76815   -1.93899
       O    -7.09363    9.75371   -1.54363
      H1    -6.93118   10.17286   -0.67150
       H    -4.14442   13.09795   -2.75755
       O    -3.45926   13.17823   -3.36829
      H1    -2.75496   13.36652   -2.77107
       H     4.33600   11.07502    0.86812
       O     3.43008   11.33394    0.57671
      H1     3.38523   12.25586    0.95467
       H    -1.11136    7.85492   -0.88876
       O    -1.19311    8.26357   -0.03826
      H1    -2.11562    7.87893    0.08348
       H     0.74060   12.26363   -0.09347
       O    -0.07773   12.64458    0.19702
      H1     0.01323   12.60515    1.11627
       H    -3.36477   11.93723   -0.00719
       O    -3.90662   12.54480   -0.49624
      H1    -4.16165   13.17175    0.19966
       H    -1.05317    5.88246    1.40390
       O    -1.98962    5.61923    1.51073
      H1    -2.08915    6.01399    2.40345
       H    -0.69688   13.42149   -1.90778
       O    -1.12923   14.16120   -2.29279
      H1    -0.83620   14.18103   -3.18974
       H     2.65604   13.15897   -5.44427
       O     2.45721   12.68759   -6.26405
      H1     1.52629   12.48324   -6.12401
       H     4.69097    7.22546   -4.56736
       O     4.82950    6.58905   -3.79487
      H1     5.75374    6.60547   -3.56190
       H    -7.12129   12.02667   -3.43295
       O    -6.27753   12.50739   -3.40243
      H1    -5.65003   11.76890   -3.48071
       H     0.53177    8.76848    2.29223
       O     0.39852    8.38069    3.17958
      H1     0.15610    7.51471    2.83308
       H     3.74071    6.33143    0.39206
       O     3.35571    5.94189    1.17104
      H1     3.72552    5.05475    1.24534
       H    -1.90250    5.82756    4.34823
       O    -2.58079    6.40533    3.97824
      H1    -3.31851    5.75918    4.28312
       H     4.34138    4.36838   -5.80606
       O     4.52018    4.31364   -6.75442
      H1     4.35425    5.20806   -7.13071
       H    -1.10265    7.69151   -3.45934
       O    -0.94018    6.97445   -2.82364
      H1    -1.57557    6.28100   -3.08702
       H     1.03145    4.95531    2.67026
       O     0.85799    5.85388    2.32441
      H1     1.70848    6.03199    1.87688
       H    -5.77479    2.44410   -1.88022
       O    -6.64361    2.04653   -1.71614
      H1    -6.64024    1.97530   -0.74856
       H     3.04045    3.92171   -2.64238
       O     2.59551    4.12345   -1.82323
      H1     1.85266    3.42742   -1.66558
       H     0.57144    2.40097   -6.41662
       O     0.09054    1.59221   -6.64367
      H1     0.59251    1.24318   -7.41040
       H    -3.53148    2.97512   -0.14436
       O    -3.53021    3.25304    0.79666
      H1    -3.03205    4.09683    0.76297
       H    -1.84418    9.69502   -0.29510
       O    -2.00047   10.62043   -0.56847
      H1    -1.28139   11.16812   -0.18673
       H    -4.09845    9.81292   -3.34538
       O    -5.00283   10.00070   -3.49503
      H1    -4.90674    9.72826   -4.42998
       H     2.37620    4.30552   -6.69947
       O     1.86716    3.64764   -6.19981
      H1     1.07036    4.13740   -5.90019
       H     2.09099    6.54719   -5.26368
       O     2.02094    6.55748   -6.22973
      H1     1.11160    6.52755   -6.40085
       H    -7.93633    7.12033    0.89719
       O    -7.65746    6.98571    0.00506
      H1    -7.54131    7.90053   -0.34929
       H    -2.92577   12.47856   -4.79720
       O    -2.50673   11.85805   -5.46104
      H1    -3.19860   11.65649   -6.11397
       H    -2.04632    7.25579   -8.26230
       O    -2.93018    7.28231   -7.85527
      H1    -3.40598    7.98168   -8.28451
       H     4.75907    8.29370   -1.35574
       O     4.22224    7.50982   -1.02350
      H1     4.23170    7.00035   -1.88339
       H    -3.52442    4.29937   -7.57976
       O    -4.25578    4.87984   -7.29981
      H1    -3.92166    5.66684   -7.65463
       H     0.46734    0.56807   -3.99526
       O     0.04027    0.92383   -3.21246
      H1    -0.20956    1.86075   -3.51545
       H     4.60181    4.88871   -4.05551
       O     4.19625    3.98614   -4.13297
      H1     4.73294    3.47675   -3.54162
       H     1.41525    8.09666   -1.54696
       O     1.93674    8.90331   -1.42884
      H1     2.78291    8.49870   -1.14338
       H     4.38318    3.79281   -1.28517
       O     5.24932    3.52037   -1.48289
      H1     5.42978    3.04655   -0.62438
       H     1.32989    1.20734   -2.08228
       O     1.64445    1.37033   -1.19110
      H1     2.61496    1.31531   -1.31501
       H     1.63642    9.70829   -2.88993
       O     1.45106    9.99920   -3.79681
      H1     1.90404    9.30229   -4.25203
       H     3.84262   11.55084   -5.87918
       O     4.67349   11.11868   -5.63841
      H1     4.35700   10.24072   -5.49319
       H     1.20430    8.78563   -6.98659
       O     1.97976    9.37262   -7.16837
      H1     1.48288   10.04928   -7.67983
       H    -6.38488    2.79713    1.94829
       O    -5.74898    3.48310    2.35088
      H1    -4.98096    3.50437    1.76109
       H    -1.78740    8.46226   -5.27354
       O    -0.87797    8.47266   -5.56935
      H1    -0.48568    9.26351   -5.16072
       H     3.06428    6.61726   -7.54585
       O     3.58727    6.49922   -8.35453
      H1     3.06178    5.82621   -8.77956

