180
frame 10 | Written by MDAnalysis XYZWriter (release 2.4.3)
       H     3.85361   -4.82434   -5.01299
       O     4.66661   -5.24060   -4.70124
      H1     5.05590   -5.41305   -5.55659
       H    -4.78925   -3.00595   -5.50964
       O    -4.26360   -2.49886   -6.10123
      H1    -4.45345   -2.98122   -6.92599
       H     5.12850   -0.04297   -2.29516
       O     4.71608   -0.91840   -2.50336
      H1     5.43316   -1.60863   -2.59821
       H    -1.83038    2.17601    1.52820
       O    -1.76452    3.08492    1.15270
      H1    -1.88245    3.02852    0.22213
       H    -0.66236   -1.95800   -3.39084
       O    -0.69356   -1.97694   -2.41810
      H1    -0.01059   -1.47058   -1.94379
       H     1.59808   -8.04298   -3.66101
       O     2.44573   -7.62807   -3.50543
      H1     2.68161   -7.41826   -4.41493
       H    -4.14102   -0.59465   -6.08739
       O    -3.82826    0.25076   -6.31653
      H1    -3.02203    0.38570   -5.78997
       H     0.69174    4.86436   -8.03803
       O     1.49812    4.92167   -8.54885
      H1     1.29458    4.76503   -9.45799
       H    -2.02844   -5.52266   -3.04229
       O    -2.02911   -5.65686   -3.99441
      H1    -1.80894   -4.74694   -4.28794
       H     7.72728   -2.56557    0.21766
       O     7.13270   -3.06553    0.79306
      H1     6.27800   -2.83885    0.49017
       H     1.72477    1.44648   -4.53104
       O     1.57378    2.41793   -4.58004
      H1     0.74888    2.54126   -5.02815
       H     3.56370   -4.54507   -9.35873
       O     2.80280   -4.72997   -9.86033
      H1     2.87519   -5.61464  -10.29161
       H     1.99934    4.43961    1.31099
       O     2.44311    3.67344    1.62096
      H1     2.11730    3.00848    1.03400
       H    -3.93664   -2.00142   -1.99505
       O    -3.39581   -2.42535   -2.63609
      H1    -2.49255   -1.98119   -2.59738
       H     1.54030   -4.79537   -5.26717
       O     2.20228   -4.05214   -5.28962
      H1     2.18887   -3.81638   -4.32775
       H    -0.47894   -3.48050   -8.64754
       O    -0.53423   -2.62324   -9.01360
      H1    -1.27994   -2.18991   -8.58367
       H    -0.00145   -5.21864    1.29496
       O     0.32986   -4.53409    0.65014
      H1     1.24757   -4.37741    0.89304
       H     1.51246    0.82921    0.02469
       O     2.01792    1.67485   -0.00022
      H1     1.66904    2.24625   -0.68820
       H     1.33415   -2.67194   -5.83078
       O     0.91151   -1.78744   -5.76936
      H1     1.01380   -1.37730   -6.62546
       H     1.43034   -4.97542   -8.80064
       O     0.55842   -4.99462   -8.31705
      H1     0.84211   -5.05005   -7.42838
       H     1.03671   -3.15061   -2.63024
       O     1.94344   -3.40775   -2.82934
      H1     2.28965   -3.98389   -2.15015
       H     4.18791   -5.05489   -2.84044
       O     3.61876   -5.40765   -2.14561
      H1     3.10115   -6.06995   -2.59887
       H     5.47817   -3.38426   -8.30527
       O     4.56701   -3.30350   -7.98306
      H1     4.06102   -2.64440   -8.46281
       H     3.51312   -2.90716    1.47440
       O     3.02060   -3.27167    2.21808
      H1     3.63424   -3.33731    3.00781
       H     6.08911    2.86979   -0.98362
       O     6.35521    3.64037   -0.54280
      H1     5.54647    4.06900   -0.15395
       H     3.02010   -0.42648   -3.36068
       O     2.43056   -0.04042   -4.03355
      H1     1.88384   -0.79426   -4.41276
       H     6.64592    0.81939   -2.23351
       O     5.91494    1.25427   -1.81744
      H1     5.87957    1.04265   -0.86910
       H     5.40294    3.76473   -8.45969
       O     4.61912    4.28064   -8.63388
      H1     4.05566    4.13139   -7.87077
       H    -1.00306    1.81996   -7.96861
       O    -0.73995    1.62627   -8.88952
      H1    -1.42258    0.98905   -9.22162
       H     5.32408    0.05824   -8.84453
       O     5.58115   -0.33385   -9.71309
      H1     4.80952   -0.15947  -10.30328
       H     6.87617   -6.78454   -7.14666
       O     6.16005   -6.19885   -6.95183
      H1     6.47925   -5.35938   -7.32582
       H     1.60915    4.52781   -1.81543
       O     1.32722    3.60190   -2.01246
      H1     1.38053    3.59597   -3.00884
       H    -0.80854   -2.72186   -5.75099
       O    -1.57056   -2.86910   -5.19244
      H1    -2.33261   -2.59902   -5.67454
       H    -1.94517    1.38720   -3.26377
       O    -2.46338    1.66594   -4.02768
      H1    -3.38255    1.54595   -3.92600
       H    -2.83443    1.19522   -1.42903
       O    -1.88170    1.39702   -1.36654
      H1    -1.89527    2.35186   -1.52996
       H     0.63537   -6.27659   -0.83338
       O     0.38895   -7.13959   -1.09338
      H1     1.04743   -7.75899   -0.92648
       H     2.51300   -0.92447  -11.29740
       O     3.04718   -1.74143  -11.40597
      H1     2.71401   -2.31187  -10.72493
       H     7.01554   -0.17890   -5.49374
       O     7.83217   -0.69027   -5.40415
      H1     8.24165   -0.26713   -4.59830
       H     6.27893    2.70998   -3.18919
       O     6.18881    3.26142   -3.96226
      H1     5.78394    4.03594   -3.56510
       H     0.96148    1.23713   -9.58155
       O     1.62307    0.77111  -10.08320
      H1     2.37540    1.37435  -10.29133
       H     7.40809    2.50470   -7.50856
       O     7.18314    3.24292   -8.09464
      H1     7.82858    3.93653   -7.87320
       H    -1.83943    4.86242   -1.16639
       O    -1.62927    4.10487   -1.76962
      H1    -0.65041    4.19247   -2.00431
       H     5.00816    3.49840   -5.32021
       O     4.15388    3.30700   -5.80441
      H1     3.47134    3.08861   -5.12540
       H     6.33792   -4.18770   -1.83733
       O     6.36876   -3.29087   -2.24780
      H1     6.79819   -3.42086   -3.10463
       H    -2.81755    0.16295   -8.18631
       O    -2.76300   -0.46752   -8.86860
      H1    -3.59707   -0.90169   -8.97407
       H    -1.09367   -4.76647   -1.07125
       O    -2.02189   -4.69867   -1.41806
      H1    -2.05319   -3.81126   -1.81444
       H     4.29505   -2.16541   -6.29663
       O     4.68281   -1.47473   -5.69527
      H1     4.01015   -1.11586   -5.03380
       H     4.25162   -1.18036    0.63201
       O     4.32158   -2.10090    0.34993
      H1     4.48750   -2.02673   -0.57404
       H    -2.10252   -2.68068    0.78567
       O    -1.21684   -2.42446    1.07506
      H1    -0.73589   -3.27785    1.19590
       H    -0.73428   -0.20226    1.74866
       O    -1.42639    0.29749    2.29336
      H1    -1.15854    0.44717    3.20923
       H     0.46524   -6.87730   -6.27826
       O     0.35974   -6.02855   -5.71108
      H1    -0.29871   -6.14326   -5.01894
       H     9.05638    0.98254   -3.05299
       O     8.28454    0.48161   -3.00575
      H1     8.34505   -0.12362   -2.22958
       H     5.10241    1.11665    1.60288
       O     4.80441    0.93824    0.72866
      H1     3.94138    1.41786    0.66010
       H     6.62450   -4.54642   -4.80342
       O     7.39810   -3.94749   -4.72181
      H1     7.16573   -3.05949   -5.09211
       H    -1.96332    4.96072   -3.40147
       O    -2.18609    5.47733   -4.20368
      H1    -1.65024    6.24740   -4.13264
       H    -0.45447   -1.12460    0.26525
       O     0.07856   -0.46021   -0.19574
      H1    -0.54025    0.11453   -0.58759
       H     4.89522    0.06586   -6.63184
       O     5.09951    0.79407   -7.28111
      H1     4.59081    1.55886   -7.04506
       H    -1.38792    2.39981   -5.30625
       O    -1.10521    2.56536   -6.25201
      H1    -1.28650    3.46356   -6.39969
       H     2.26931   -0.51260   -8.48480
       O     2.06980   -1.36127   -8.12220
      H1     1.39961   -1.66689   -8.73939
       H    -6.01954   -4.08561   -3.44179
       O    -5.32712   -3.90390   -4.09238
      H1    -4.60637   -3.47111   -3.57974

