180
frame 3 | Written by MDAnalysis XYZWriter (release 2.4.3)
       H   -12.80590  -16.78599   -7.27136
       O   -13.25986  -15.98319   -7.29695
      H1   -12.83013  -15.53403   -6.59258
       H    -4.12398  -12.56157  -15.76152
       O    -4.80791  -13.18042  -16.05954
      H1    -5.50861  -12.55526  -16.33722
       H    -5.48617  -13.84618  -14.17765
       O    -5.83087  -13.83057  -13.28676
      H1    -6.60452  -13.26911  -13.33633
       H    -3.68626  -15.68336   -5.73254
       O    -3.87732  -15.83369   -4.78875
      H1    -2.97019  -15.85784   -4.46604
       H    -1.19525  -14.92446   -9.78693
       O    -1.41359  -13.98183   -9.82523
      H1    -2.27058  -13.93129  -10.25016
       H   -12.71212  -14.92778  -13.43636
       O   -12.15419  -15.47971  -13.97218
      H1   -12.54192  -16.36370  -13.74974
       H    -8.91806  -11.54759  -13.71324
       O    -8.24443  -12.12416  -14.06970
      H1    -7.95716  -11.49321  -14.79658
       H    -2.37243  -16.00930  -15.36192
       O    -1.48198  -16.23720  -15.24904
      H1    -1.35954  -16.30861  -14.28761
       H   -12.44529  -12.65548   -8.95218
       O   -13.05741  -13.34923   -8.95721
      H1   -12.53727  -14.21494   -8.91171
       H   -12.86411  -19.24236  -18.45058
       O   -13.36384  -18.37712  -18.40244
      H1   -12.77352  -17.99126  -19.11617
       H    -4.18759  -18.57151   -9.88187
       O    -4.78489  -19.22982  -10.29358
      H1    -4.80145  -19.81535   -9.52885
       H   -10.34683  -18.24542   -9.84248
       O    -9.68454  -17.50350   -9.92823
      H1   -10.14801  -16.71860   -9.56024
       H    -5.70647  -18.36541  -15.80758
       O    -4.85092  -17.99391  -15.52693
      H1    -4.40913  -18.65790  -14.95244
       H     0.72380  -16.85217  -13.86512
       O     0.27276  -16.51451  -13.05267
      H1     1.02171  -16.04159  -12.65991
       H   -14.20006  -17.59070  -13.53890
       O   -13.32190  -17.78089  -13.16797
      H1   -13.50900  -17.45355  -12.19632
       H    -8.34385  -16.27816  -17.14951
       O    -7.60030  -16.00406  -16.64268
      H1    -7.40146  -15.12322  -16.96541
       H    -6.41191  -14.78074   -7.82353
       O    -7.31749  -14.55857   -7.75702
      H1    -7.17935  -13.68249   -7.35551
       H    -8.86936  -15.03732   -6.67591
       O    -9.75796  -15.06007   -6.29129
      H1    -9.95323  -14.09062   -6.38366
       H    -4.56056  -15.19297  -12.85929
       O    -3.88343  -15.83810  -12.81941
      H1    -4.41241  -16.65966  -12.67272
       H    -2.12696  -14.37713  -13.03249
       O    -1.84382  -13.55531  -13.40568
      H1    -0.85863  -13.57934  -13.32342
       H    -6.93587  -19.23462   -3.31382
       O    -5.97594  -19.18408   -3.48905
      H1    -5.85722  -18.23606   -3.70925
       H   -11.21960  -11.72912  -12.57885
       O   -10.66718  -10.99198  -12.95127
      H1   -11.11918  -10.23913  -12.46532
       H    -9.63372  -15.26611   -3.25650
       O   -10.09952  -15.95776   -3.79002
      H1   -10.02274  -15.57980   -4.66637
       H   -14.09964  -12.39891  -11.90842
       O   -14.06464  -11.44155  -12.01350
      H1   -14.58837  -11.28592  -12.84840
       H    -9.61639  -13.01665  -15.56619
       O    -9.45282  -12.92684  -16.48500
      H1    -9.96961  -13.57627  -16.96105
       H    -5.21085  -11.75333   -9.78166
       O    -5.77573  -11.16619   -9.33657
      H1    -5.10578  -10.71013   -8.74230
       H    -6.89627  -11.35301   -7.19499
       O    -7.70563  -11.76863   -6.82363
      H1    -7.38364  -11.91016   -5.89599
       H    -4.49476  -13.20171  -11.67513
       O    -3.86520  -12.74954  -11.12392
      H1    -3.99425  -11.81787  -11.48512
       H    -7.19251  -15.53686  -13.00973
       O    -7.65855  -16.21342  -12.54642
      H1    -8.45174  -16.37956  -13.11128
       H    -7.65190  -15.34007  -10.91391
       O    -7.33481  -14.45299  -10.58263
      H1    -7.54499  -14.49602   -9.63071
       H    -0.40629  -18.35582   -9.82362
       O    -0.58129  -18.11926   -8.91161
      H1     0.19499  -17.60394   -8.73709
       H   -12.92619  -13.58811  -11.59134
       O   -13.57342  -14.06565  -12.18464
      H1   -13.88835  -14.65244  -11.50232
       H    -7.93252  -17.65597   -9.13438
       O    -7.02182  -17.93780   -8.94433
      H1    -6.63615  -18.15253   -9.76634
       H   -12.51694  -18.94125   -6.65460
       O   -11.84103  -18.41876   -7.05673
      H1   -11.06941  -18.69983   -6.54927
       H    -3.33220  -12.72673   -6.54228
       O    -2.79870  -13.20387   -7.23587
      H1    -3.46765  -13.83456   -7.64766
       H   -15.50376  -16.97293  -15.50134
       O   -15.49296  -17.05465  -14.55081
      H1   -15.99624  -17.83997  -14.31839
       H   -10.49741  -19.18637  -15.44243
       O    -9.68690  -18.96532  -14.87147
      H1    -9.85184  -18.03596  -14.71541
       H    -4.74044  -14.82331  -16.95739
       O    -4.38174  -15.70326  -17.19873
      H1    -4.74770  -16.39293  -16.60381
       H    -8.00768  -10.48735  -11.53597
       O    -8.21076  -10.95624  -10.72658
      H1    -7.31623  -11.10733  -10.36594
       H   -10.09578  -12.88718  -11.48568
       O   -10.90924  -13.39162  -11.34662
      H1   -10.75370  -14.22708  -11.81635
       H    -0.34388  -19.53793  -11.68599
       O     0.12705  -18.79336  -11.32120
      H1    -0.03689  -18.00835  -11.90823
       H    -3.96890  -19.16790   -5.97961
       O    -4.35788  -18.68006   -6.74194
      H1    -5.27145  -18.43227   -6.39256
       H   -14.81215  -16.35593  -10.26204
       O   -13.94111  -16.44849  -10.69524
      H1   -13.42129  -15.98682  -10.02152
       H   -12.83753  -13.47368  -16.57489
       O   -12.29219  -14.30822  -16.52869
      H1   -12.30535  -14.53607  -15.55503
       H    -7.57933  -18.19628  -12.08667
       O    -8.00797  -18.97641  -11.70401
      H1    -8.50986  -18.59554  -10.97697
       H    -6.85007  -17.27119   -7.13457
       O    -6.76838  -17.52641   -6.18202
      H1    -6.73703  -16.67178   -5.76944
       H    -1.51934  -17.80036  -15.25683
       O    -1.45778  -18.80009  -15.37027
      H1    -1.72222  -19.10853  -14.50108
       H    -3.96969  -15.73284   -8.46189
       O    -4.54089  -14.95963   -8.26720
      H1    -4.65901  -14.55451   -9.16950
       H    -7.51081  -16.57033  -19.22276
       O    -6.67270  -16.61715  -19.73070
      H1    -5.99746  -16.44781  -19.03678
       H   -16.93163  -17.92867   -9.15947
       O   -16.39982  -17.26280   -9.58393
      H1   -17.07659  -16.88709  -10.21072
       H   -10.24012  -16.63417  -19.18762
       O    -9.44413  -16.85839  -18.62574
      H1    -9.47842  -17.82221  -18.71932
       H    -3.41007  -17.88979   -8.24794
       O    -3.18671  -17.28335   -8.98083
      H1    -2.19009  -17.17871   -8.85936
       H   -15.95022  -17.16141  -17.52890
       O   -15.40849  -16.41255  -17.23181
      H1   -14.59068  -16.87805  -17.38244
       H   -15.13801  -16.23220   -7.09453
       O   -16.07853  -16.21442   -7.19349
      H1   -16.06671  -16.69772   -8.05358
       H   -10.54046  -14.79548   -8.38000
       O   -11.00174  -15.11792   -9.13942
      H1   -10.88073  -14.43517   -9.84325
       H    -9.10252  -15.74775  -15.33467
       O    -9.62888  -16.15987  -14.57204
      H1   -10.41932  -15.65056  -14.67015
       H    -5.59783  -15.89747   -4.47581
       O    -6.47553  -15.61186   -4.28569
      H1    -6.62837  -15.78594   -3.36989
       H    -8.61407  -19.61949   -6.59611
       O    -9.23368  -19.13542   -6.01290
      H1    -8.88153  -18.19778   -6.10479
       H    -8.88346  -19.04022   -4.11205
       O    -8.78707  -18.90699   -3.16670
      H1    -8.92735  -17.96907   -2.97556
       H    -3.77809  -19.66156  -12.81641
       O    -3.34151  -18.82302  -13.04960
      H1    -3.40260  -18.26767  -12.24496

