180
frame 9 | Written by MDAnalysis XYZWriter (release 2.4.3)
       H    10.92876   10.97151  -16.39021
       O    10.88156   11.97923  -16.28677
      H1    11.56163   12.12562  -15.64420
       H     9.00402   10.95518  -10.71951
       O     9.48230   10.83118  -11.53420
      H1     9.59689    9.87445  -11.60098
       H    15.89260   10.66696   -7.23619
       O    15.65802   11.62452   -7.27270
      H1    15.02328   11.68752   -8.04766
       H     9.35644   12.51101  -19.09143
       O     8.50411   12.36644  -19.52620
      H1     7.87501   12.29786  -18.76138
       H     7.54081   10.16474  -15.29803
       O     8.32348   10.43061  -14.75764
      H1     8.43388   11.37766  -14.93866
       H    15.13960   14.33045  -14.44962
       O    14.60642   14.77691  -13.75234
      H1    13.81456   14.96664  -14.19561
       H    11.06838   16.72039  -18.41240
       O    10.96815   15.91339  -17.79101
      H1    10.30390   16.29827  -17.16615
       H    19.90608   15.80953  -16.33555
       O    19.07201   16.12234  -15.96589
      H1    18.47073   15.61746  -16.60385
       H    12.30165    4.70226  -17.29667
       O    11.68230    5.30595  -16.92632
      H1    10.99912    4.69682  -16.65977
       H    18.98192   11.87195  -15.77716
       O    19.52049   12.51908  -15.25420
      H1    19.94772   12.99804  -15.95799
       H    15.45166    8.30531   -8.83003
       O    16.34738    7.97263   -8.68585
      H1    16.69788    7.69530   -9.55184
       H    16.14791   16.96415  -16.42368
       O    16.38415   17.75658  -15.90148
      H1    15.50802   18.19489  -15.90152
       H    12.23755    8.85842  -13.38498
       O    11.60718    8.52700  -14.07139
      H1    11.93870    7.67146  -14.43404
       H    18.99743   10.27885   -9.51257
       O    19.23320   10.63671  -10.37833
      H1    18.55923   11.31691  -10.57042
       H    17.93942   14.35508  -18.30251
       O    17.49103   14.99286  -17.77996
      H1    16.84579   14.47329  -17.28113
       H    12.65492   14.72852  -17.26693
       O    12.98562   14.48874  -16.37998
      H1    13.17098   13.54451  -16.39528
       H    17.25154    9.66650  -15.73143
       O    17.23084   10.45766  -15.13838
      H1    17.69989   10.04678  -14.39739
       H    16.87251    6.54980  -15.09593
       O    17.79992    6.54994  -14.88788
      H1    17.84136    7.22893  -14.16082
       H    18.38640   17.79270  -13.98553
       O    18.38441   17.85545  -13.00878
      H1    17.57417   17.39936  -12.97336
       H     9.46919   13.70709  -14.18552
       O     8.96848   13.19974  -14.87469
      H1     9.73745   12.84378  -15.43010
       H    11.07433   11.54222   -9.08365
       O    10.52790   11.99652   -8.42568
      H1    11.08635   12.80141   -8.30553
       H    16.46531   12.55101  -15.80497
       O    16.06468   13.42258  -15.85461
      H1    15.26745   13.25301  -16.42326
       H     8.03638    6.77012  -17.86099
       O     8.04169    7.71847  -17.80300
      H1     8.78086    7.94229  -17.19497
       H    15.68006   11.05864  -14.60395
       O    14.84902   11.10989  -14.09815
      H1    15.18696   11.70481  -13.36749
       H    15.51404    5.59359  -12.63623
       O    14.62726    5.93812  -12.35987
      H1    14.15148    5.75588  -13.22825
       H    16.17381    3.37198  -13.20822
       O    16.80770    4.03336  -13.08038
      H1    17.54583    3.84291  -13.74132
       H    12.75858    5.89810  -15.10731
       O    12.69897    5.88500  -14.14679
      H1    11.78593    5.48212  -14.04994
       H    13.37028    8.65360   -6.71554
       O    12.82100    8.47654   -7.50834
      H1    12.54378    7.59898   -7.18567
       H    17.72149    9.16560  -18.28149
       O    17.23706    8.52987  -17.64422
      H1    17.97303    7.89607  -17.43717
       H    13.45925   11.26818  -17.39760
       O    14.04555   11.98856  -17.12795
      H1    14.17930   12.31633  -18.04908
       H     8.77767    8.06401  -12.34269
       O     9.56676    7.48772  -12.44020
      H1    10.11019    7.96350  -13.09382
       H    11.85862   14.71324  -14.80223
       O    11.15476   15.30331  -14.52855
      H1    11.05468   15.96920  -15.27365
       H    15.45175   16.35440  -12.87395
       O    15.82378   16.99611  -12.31851
      H1    15.71121   17.80715  -12.87047
       H    15.92769   12.83550  -11.49851
       O    15.06801   12.76387  -11.91714
      H1    14.91732   13.51477  -12.46788
       H    13.53920    9.01312  -10.68569
       O    14.07433    8.99970   -9.86397
      H1    13.50064    8.72732   -9.20689
       H    18.80627    6.19156  -16.37098
       O    19.05784    6.39348  -17.33456
      H1    19.02858    5.43678  -17.69770
       H    10.73116    8.67954  -15.77165
       O    10.14361    9.19486  -16.35809
      H1     9.53558    9.56392  -15.67002
       H    18.12224   15.59797  -10.19658
       O    17.15135   15.54687  -10.01134
      H1    16.74419   16.43048  -10.24827
       H    15.21900    8.44744  -14.40583
       O    15.09003    7.67379  -14.96603
      H1    14.92638    8.01693  -15.84404
       H    13.67860    8.89683  -18.01321
       O    14.28357    8.10922  -17.75370
      H1    15.15636    8.46778  -18.10604
       H    18.67657    8.39343  -12.19439
       O    18.13666    8.62409  -12.97622
      H1    17.30322    8.51754  -12.48665
       H    10.78125   12.11106  -11.67989
       O    11.70889   12.37643  -11.88893
      H1    11.71254   13.32140  -11.63261
       H    11.31647   14.80277  -10.08869
       O    11.39575   15.13815  -11.00479
      H1    10.53053   14.81229  -11.33438
       H     8.89248   15.19562  -13.24707
       O     8.89949   14.60973  -12.47833
      H1     7.97134   14.31280  -12.52315
       H    15.42622    8.65525  -11.15878
       O    15.74166    8.40818  -12.05035
      H1    15.24034    7.55846  -12.18787
       H    12.73069    4.74530  -10.47450
       O    12.81017    3.98960  -11.09531
      H1    13.45507    4.33772  -11.74990
       H    13.81110   10.30829  -12.79900
       O    13.11571    9.95112  -12.17666
      H1    12.54113   10.75234  -12.05659
       H    14.11461   12.37315  -10.01324
       O    13.88728   11.83547   -9.24476
      H1    13.88674   10.94807   -9.68950
       H    18.91128    3.81621  -14.97628
       O    19.14061    4.45014  -14.23710
      H1    18.63977    5.26204  -14.48554
       H    17.80761    8.93226   -8.15236
       O    18.58631    9.35491   -7.98111
      H1    19.31645    8.68865   -8.02359
       H    15.82755    4.29625  -10.18958
       O    16.74814    4.01506  -10.41788
      H1    16.81475    3.93717  -11.37664
       H    14.16771   16.57147  -17.99097
       O    14.76523   16.12573  -17.36563
      H1    14.23244   15.46564  -16.85567
       H     7.90317   14.32720  -17.73079
       O     7.50481   14.11038  -16.90497
      H1     8.26066   13.94835  -16.34244
       H    17.15323   13.26411   -9.91973
       O    17.35523   12.55240  -10.56056
      H1    18.10372   12.96157  -11.00507
       H    18.67955    6.36885   -9.21908
       O    18.18777    6.40613  -10.13194
      H1    17.67397    5.54012  -10.03673
       H    10.68222   14.06833  -18.64471
       O    10.92818   13.17571  -18.91077
      H1    10.94281   12.69636  -18.06989
       H    11.89626   10.16046  -19.24777
       O    12.78281   10.40928  -18.87492
      H1    13.17977   10.78129  -19.72069
       H    10.95479    5.95064  -18.31425
       O    10.86039    6.21878  -19.25744
      H1    11.76387    6.40603  -19.54970
       H    14.62912   17.33897  -10.84482
       O    14.19071   17.53576  -10.03252
      H1    14.80005   18.08871   -9.52763
       H    13.33026   12.06284  -14.43536
       O    12.50580   12.59483  -14.43388
      H1    12.32950   12.61649  -13.49730

