180
frame 8 | Written by MDAnalysis XYZWriter (release 2.4.3)
       H    -3.58553   -6.40769    4.58732
       O    -3.99924   -5.60563    4.31897
      H1    -4.40027   -5.09193    5.00202
       H    -3.87760   -0.89239    9.42638
       O    -4.22568   -1.55205    8.85598
      H1    -4.40955   -1.08447    8.01395
       H   -10.04934   -2.19559    8.44511
       O    -9.86884   -2.59828    7.54701
      H1   -10.13257   -3.52237    7.59056
       H    -6.87925   -8.33220   11.46517
       O    -6.51709   -8.00392   10.61940
      H1    -7.26470   -7.44117   10.22356
       H    -6.06372   -2.05841   10.08131
       O    -6.87351   -2.54738   10.17674
      H1    -7.39227   -1.89981   10.70190
       H   -10.33276   -0.90885   10.50184
       O   -10.84396   -0.89722    9.69357
      H1   -11.63243   -0.48292   10.08041
       H   -12.39113   -3.43582    1.38071
       O   -11.46964   -3.62982    1.07692
      H1   -11.18691   -3.67330    2.00355
       H   -11.17152    1.79876   11.58775
       O   -10.56020    1.76616   10.84086
      H1   -11.14186    2.17970   10.11441
       H    -9.96662    3.56555    7.33532
       O    -9.18279    3.69985    7.86329
      H1    -8.93599    2.77234    8.11371
       H    -5.70211   -1.59511    3.44203
       O    -5.21134   -1.43150    2.58991
      H1    -5.95148   -1.40598    1.97303
       H    -7.40254    3.37285    7.26571
       O    -6.49691    2.94201    7.17987
      H1    -5.96682    3.76455    7.42453
       H    -5.39740   -7.34574    7.22357
       O    -5.82324   -8.14511    7.60124
      H1    -5.14749   -8.55712    8.19077
       H   -11.90939    0.80486    8.15240
       O   -12.18688    1.72369    8.37650
      H1   -12.94456    1.96131    7.83807
       H   -10.54195   -6.73720    6.83344
       O   -11.36296   -6.89351    7.40102
      H1   -12.07819   -6.48417    6.91970
       H    -8.66176   -9.20903    4.52595
       O    -9.00243   -8.45359    4.03996
      H1    -9.88258   -8.48758    4.43637
       H   -11.01835   -1.13600    3.63422
       O   -10.52491   -1.92534    3.49377
      H1   -11.19679   -2.61541    3.60458
       H   -11.21378   -0.08352   13.49069
       O   -11.06186   -0.94726   13.90152
      H1   -10.16071   -1.16014   13.70127
       H   -11.37847    0.88817    0.80675
       O   -11.52198    0.34196    1.58737
      H1   -11.00102   -0.44192    1.32406
       H    -8.63350    1.84931    4.31815
       O    -9.42530    1.30733    4.10534
      H1    -9.41866    0.60382    4.75117
       H   -12.38805   -6.78427   10.36502
       O   -11.59454   -7.26253   10.07418
      H1   -11.53375   -7.07870    9.11083
       H    -8.55029    0.54818    2.71405
       O    -7.94677    0.34263    1.94220
      H1    -8.58190   -0.23077    1.41226
       H    -9.10199   -3.78500   13.14250
       O    -9.09693   -2.86633   13.57283
      H1    -8.36388   -2.97616   14.20664
       H   -14.64812   -2.60000    2.72562
       O   -13.93707   -2.22978    2.09740
      H1   -14.25190   -1.44361    1.71682
       H   -12.19151   -0.62578    6.06390
       O   -12.17046   -0.93062    6.96974
      H1   -11.41998   -1.51651    7.08720
       H    -8.49734    2.59113   13.01601
       O    -8.31278    2.29480   12.14791
      H1    -9.26573    2.19453   11.81652
       H    -6.81310   -4.96388   11.65454
       O    -6.35331   -5.68392   12.06417
      H1    -6.43325   -6.33993   11.34924
       H    -4.25927   -0.50407    6.30946
       O    -5.20319   -0.31208    6.32881
      H1    -5.24989    0.54721    5.89525
       H    -9.13665    1.16940    9.19548
       O    -8.30721    1.39152    8.72278
      H1    -7.67768    1.24496    9.43499
       H   -11.59198    1.83070    2.76224
       O   -11.52532    2.61308    3.36998
      H1   -10.75652    2.18146    3.82588
       H    -6.08310   -4.48299    2.31253
       O    -7.00071   -4.80095    2.03330
      H1    -7.36203   -5.08447    2.85889
       H    -8.55418   -3.39341   10.13269
       O    -9.50334   -3.55383   10.30250
      H1    -9.41710   -4.47836   10.54265
       H    -6.06792    1.40138   12.90764
       O    -5.53550    0.78689   12.30087
      H1    -6.04885    0.94178   11.48937
       H   -13.77946   -4.86420    6.12885
       O   -13.15894   -5.64067    5.87757
      H1   -13.83570   -6.26190    5.56447
       H    -8.95589   -6.17395    8.99771
       O    -8.72866   -6.29918    9.89746
      H1    -9.47197   -6.77106   10.28352
       H   -12.93307   -1.09076    3.90300
       O   -12.68002   -0.26401    4.42576
      H1   -13.62944   -0.05087    4.68975
       H    -8.56014   -5.91051    6.03651
       O    -8.78986   -5.69669    6.99549
      H1    -8.18282   -4.97592    7.17315
       H   -11.85537   -5.49150    3.24288
       O   -11.49768   -4.74918    3.79135
      H1   -12.02482   -4.88681    4.60724
       H    -7.03951   -2.77383    6.74613
       O    -6.93843   -3.44978    7.41326
      H1    -6.91934   -2.91987    8.20384
       H   -16.14256    1.07958    7.81894
       O   -16.15039    0.35608    8.48267
      H1   -15.24843    0.30105    8.80460
       H   -11.27249   -3.19910   10.21122
       O   -12.21637   -3.31397   10.26844
      H1   -12.44874   -2.71627   11.04698
       H   -14.35803   -0.79519   10.70398
       O   -13.84379   -0.33763   10.04251
      H1   -13.59816   -1.00753    9.43794
       H    -8.56703   -1.68670   12.56273
       O    -8.49819   -1.02627   11.83821
      H1    -7.85245   -0.35509   12.13790
       H    -4.24157   -4.72041    7.51764
       O    -4.87960   -5.14442    6.85430
      H1    -5.52952   -4.46569    6.95634
       H   -13.16007    4.57129    9.61582
       O   -13.19730    3.81757   10.17509
      H1   -13.06473    3.03278    9.59624
       H    -7.73758   -1.99781    4.81106
       O    -6.79011   -2.17499    4.73704
      H1    -6.48771   -1.36533    5.13636
       H   -11.82689   -8.19282    5.58758
       O   -11.65707   -8.41610    4.67354
      H1   -12.53847   -8.84374    4.43221
       H    -3.23695   -3.18715    6.04068
       O    -2.71571   -2.43658    5.68774
      H1    -2.21191   -2.79667    4.90187
       H    -5.06982   -1.95403   13.44969
       O    -6.01083   -2.25488   13.19926
      H1    -6.04913   -2.00740   12.29841
       H   -11.09233   -9.03977    7.28415
       O   -10.77343   -9.85894    6.95915
      H1    -9.98627  -10.06863    7.49513
       H   -14.10208   -5.41694   11.76610
       O   -13.77793   -5.42918   10.80351
      H1   -13.13773   -4.63817   10.88589
       H    -9.88144   -5.46147    4.16186
       O    -8.94703   -5.67856    4.20939
      H1    -8.89321   -6.51718    3.72832
       H   -15.14455   -2.69001    7.06107
       O   -14.19191   -3.06569    7.06281
      H1   -13.56744   -2.42305    7.31623
       H    -3.60648   -4.35459    9.41996
       O    -3.18872   -3.96813    8.65709
      H1    -3.55282   -3.10102    8.62654
       H    -8.43555    0.31777    6.55810
       O    -8.58422   -0.43502    5.99066
      H1    -9.10372   -1.02801    6.55462
       H    -3.44227   -5.18032   11.59211
       O    -4.11826   -5.19426   10.89766
      H1    -4.93646   -5.28611   11.40619
       H    -4.93286    1.51409    9.57169
       O    -5.57507    0.89449    9.28996
      H1    -5.90731    1.22274    8.42423
       H   -12.24178   -1.99425   13.12207
       O   -13.08797   -2.25179   12.65402
      H1   -13.13198   -3.17700   12.94128
       H   -10.08619   -6.08583   13.32773
       O    -9.39683   -5.59097   12.85861
      H1    -8.61678   -5.73933   13.45495
       H    -6.64310    2.56474    5.58126
       O    -6.77037    2.07518    4.73086
      H1    -6.84080    2.74199    4.01778
       H   -16.03664   -1.35621    4.46293
       O   -15.70065   -0.60039    4.87224
      H1   -16.08541   -0.79033    5.76717

