180
frame 12 | Written by MDAnalysis XYZWriter (release 2.4.3)
       H    18.70562    5.12094    3.31202
       O    18.71028    5.36263    2.37043
      H1    17.86748    5.01640    2.07736
       H    17.01001   -1.45715   10.74469
       O    16.99857   -1.03365    9.89188
      H1    17.35223   -1.86112    9.45261
       H    12.39295    7.55332    6.84751
       O    13.34266    7.47002    6.64754
      H1    13.42908    8.15359    5.91282
       H    12.63922    8.42636   17.01932
       O    12.77591    9.36536   16.93467
      H1    13.72754    9.45428   17.12273
       H    14.24893    6.05273   18.20099
       O    14.67297    6.22429   19.08102
      H1    15.57239    6.50495   18.73733
       H    18.49816   -1.89553   15.32987
       O    18.33789   -1.26100   16.06133
      H1    18.25800   -0.49000   15.47044
       H    18.57291    1.78998   10.07748
       O    17.63262    1.59393   10.19233
      H1    17.59616    0.64618   10.35061
       H    12.43985   13.02862   11.10994
       O    11.53038   13.17802   11.00874
      H1    11.14317   12.62277   11.65333
       H    14.01438    1.05731   12.76602
       O    13.40016    1.24226   12.05652
      H1    13.34853    0.37071   11.56462
       H    18.80250   10.63696    6.04183
       O    19.32432   11.04615    5.35736
      H1    20.08365   10.46198    5.15641
       H    14.47294    8.30267    9.61792
       O    15.10051    8.53791    8.88606
      H1    14.50924    8.43239    8.07152
       H    15.70266   -0.28100    8.96298
       O    14.93314    0.09223    8.42597
      H1    14.63381    0.84856    8.89817
       H    18.91343    8.69966    3.47791
       O    18.11855    8.30037    3.19500
      H1    18.34201    7.44602    2.86654
       H    10.44512    4.62144   12.80577
       O     9.60486    4.87144   13.23436
      H1     9.89911    5.50811   13.91693
       H    13.12477    3.26253    8.82475
       O    13.76886    3.01009    8.12420
      H1    14.55602    3.40710    8.48176
       H    14.71222    8.16161   13.35523
       O    14.52163    7.28290   13.45228
      H1    13.98873    7.17600   12.65828
       H    15.60984   10.35108   12.21668
       O    16.28819    9.74014   12.61312
      H1    17.05235    9.86026   12.05599
       H    15.16978    4.41034   14.61528
       O    14.31464    4.23930   15.04022
      H1    14.11805    5.04384   15.50838
       H    17.88925    2.67486    3.58099
       O    18.38836    2.36400    4.34948
      H1    17.67763    1.99575    4.94105
       H    10.19475    7.60271   15.54430
       O    11.00097    7.61772   15.01788
      H1    11.22249    8.49755   14.94804
       H    17.68182    7.29913   12.28540
       O    18.50122    7.58577   11.91270
      H1    19.03256    6.83167   12.26671
       H    15.62762   13.82477   12.10829
       O    14.64851   13.89160   12.38293
      H1    14.44562   14.66565   11.85889
       H    13.93387    7.07917   15.34868
       O    13.48015    6.64821   16.15102
      H1    12.58997    6.80721   15.78553
       H    13.31088   11.46726   13.04949
       O    13.67445   10.89211   12.29859
      H1    13.86616   11.58582   11.64574
       H    17.43349    5.64190   15.65366
       O    17.84307    5.91315   16.48594
      H1    17.77892    5.22118   17.12584
       H    17.55694   16.58453   12.66747
       O    17.23723   15.74859   13.05292
      H1    18.05422   15.45360   13.48367
       H    12.26576    8.80389   10.42551
       O    13.01645    8.60281   11.00121
      H1    13.28169    9.48400   11.33596
       H    17.39614   -0.14619   13.64445
       O    17.90142    0.55855   14.03718
      H1    18.70658    0.54584   13.47508
       H    17.23190    3.37112   19.12120
       O    17.91260    3.83193   18.64983
      H1    18.40794    3.06759   18.27291
       H    12.84231    3.63546   13.31408
       O    12.23469    4.04339   12.69436
      H1    12.19457    3.54480   11.88078
       H    14.28458   -1.39929   14.45790
       O    14.81797   -0.67009   14.06110
      H1    14.66765    0.08060   14.61572
       H    18.12091   13.17868   14.70753
       O    18.62091   13.95848   15.08007
      H1    19.21327   14.06328   14.31066
       H    13.94785    2.38420   15.74151
       O    13.53068    1.52897   15.52122
      H1    13.44055    1.13989   16.41561
       H    16.14582    9.05155   17.72432
       O    15.66260    9.73209   17.20419
      H1    16.15180    9.72045   16.36745
       H    17.21552    5.05009    5.48630
       O    18.11426    5.07055    5.16899
      H1    18.34142    4.15247    4.91873
       H    15.39983   10.50218    5.90258
       O    15.83749   10.39541    6.79637
      H1    16.35180    9.58856    6.64173
       H    17.28633    2.53275   11.73911
       O    16.89851    3.03575   12.49032
      H1    17.21636    2.45402   13.19896
       H    12.36884    4.69001    6.88750
       O    12.14054    5.11972    6.06491
      H1    12.64235    5.94065    6.30915
       H    19.29942    9.19061   15.81419
       O    19.00839    9.88494   16.47958
      H1    18.52079   10.45033   15.86415
       H    16.52518   11.62687   17.86576
       O    16.62292   12.55513   18.06129
      H1    17.57522   12.48862   18.35759
       H    12.31590    2.06848   10.61946
       O    12.14347    2.92858   10.17185
      H1    11.26637    2.74936    9.73823
       H    17.19154   14.00515   11.90940
       O    17.09563   13.19413   11.41894
      H1    17.13336   13.43700   10.53280
       H    16.97429   10.60843   14.20416
       O    17.00157   11.08720   15.04683
      H1    16.17026   11.59072   15.12658
       H    10.48137    1.72098   14.71622
       O    11.11711    1.14327   14.19308
      H1    11.99331    1.56610   14.42788
       H    16.69633    1.09848    7.52791
       O    16.91885    1.56827    6.74453
      H1    16.57225    2.46524    6.98574
       H    19.81682    1.28125    7.39971
       O    19.60955    0.79538    6.55615
      H1    18.68688    1.09250    6.44771
       H    11.53733   12.96110   14.89606
       O    12.02205   12.11521   14.85974
      H1    12.97507   12.36216   15.02833
       H    14.82055   11.76330    9.23050
       O    14.29090   11.09156    9.63745
      H1    14.62170   10.30864    9.17945
       H    18.77559   12.23800   12.16833
       O    19.07402   11.74088   12.91486
      H1    19.73116   11.05452   12.73382
       H    14.27384   13.24141   16.44203
       O    14.73095   12.90202   15.63774
      H1    15.09131   13.74400   15.15257
       H    17.35701   -2.11613   13.16913
       O    16.97657   -1.38879   12.64510
      H1    16.10020   -1.29607   13.04750
       H    17.79921    8.62171    7.78195
       O    18.17110    9.08418    6.99039
      H1    18.70996    8.32085    6.70259
       H    17.83518   14.35422    8.11494
       O    17.76881   13.62747    8.75814
      H1    18.33294   12.93933    8.47700
       H    15.93633    5.82918   13.34478
       O    16.68685    5.43080   13.84534
      H1    16.90584    4.67623   13.30155
       H    17.23746    4.89167    7.98705
       O    16.39509    4.68193    7.65393
      H1    15.86871    5.50947    7.66044
       H    17.88829    7.50878   10.01876
       O    17.52590    7.59484    9.08865
      H1    16.67932    8.02654    9.20247
       H    17.37437    7.33110   17.79394
       O    17.02432    7.51541   18.70348
      H1    17.72841    7.91151   19.22639
       H    11.40956   12.15250    8.90168
       O    11.74183   11.28309    8.47828
      H1    12.68526   11.28810    8.74316
       H    15.41508    3.72197   12.01560
       O    14.90294    4.22313   11.39090
      H1    13.95217    4.10270   11.65551
       H    14.91835    0.57342    5.72553
       O    14.13107    1.10136    5.74230
      H1    14.22281    1.60104    6.53609

