180
frame 5 | Written by MDAnalysis XYZWriter (release 2.4.3)
       H   -16.13723   -6.98661   -2.95326
       O   -16.26958   -6.40641   -3.74815
      H1   -16.18124   -7.00519   -4.52440
       H   -14.12558   -2.91205   -3.90373
       O   -13.83534   -2.38726   -3.14568
      H1   -14.63436   -2.18203   -2.60738
       H   -17.45972   -1.26948    5.86828
       O   -16.62464   -1.08962    6.31259
      H1   -16.90907   -1.05855    7.23732
       H   -16.68966   -5.84641    0.59417
       O   -16.12184   -5.57283    1.35057
      H1   -15.71070   -6.35996    1.63154
       H   -17.18796    0.64217   11.14057
       O   -17.66877    0.21677   11.84547
      H1   -17.61395    0.90083   12.54315
       H   -13.80606    2.41663    1.99184
       O   -14.41270    2.13162    2.69882
      H1   -14.26570    2.85905    3.36191
       H   -13.90352    0.86907   -1.74008
       O   -14.86402    0.99657   -1.64121
      H1   -14.85919    1.48481   -0.83006
       H   -12.51530    2.57981    5.12004
       O   -12.65613    2.10838    5.95775
      H1   -12.79121    1.18731    5.60652
       H   -16.61513   -2.91487   -0.50623
       O   -17.14760   -2.78825   -1.35551
      H1   -18.09014   -2.69927   -1.03827
       H   -12.78586   -3.26090    0.73740
       O   -11.96784   -3.79778    0.78280
      H1   -11.94842   -4.08716    1.69956
       H   -13.30268   -6.79026    4.40274
       O   -13.78668   -5.94660    4.21452
      H1   -14.50641   -6.04803    4.87046
       H   -17.12197   -4.07433    3.94786
       O   -17.76197   -4.62968    4.47124
      H1   -18.48617   -3.98464    4.24031
       H   -11.36834   -6.71042    7.55481
       O   -10.80979   -6.61150    8.30661
      H1   -10.41340   -5.71861    8.07416
       H   -19.11902   -6.29784    7.27825
       O   -18.71274   -7.17419    6.96828
      H1   -19.11939   -7.23681    6.11087
       H   -11.72352   -2.04917    3.61150
       O   -10.96657   -2.46634    4.01572
      H1   -11.14521   -3.40631    3.79174
       H   -12.23648    1.42961    0.53681
       O   -12.40920    0.55585    0.93515
      H1   -11.83821   -0.04831    0.42856
       H   -19.09658   -4.24205    6.48102
       O   -19.28446   -4.55695    7.40220
      H1   -19.55516   -3.76798    7.93848
       H   -19.95658   -5.46326   11.56043
       O   -19.64289   -4.55572   11.83240
      H1   -18.81264   -4.84346   12.22091
       H   -17.65736  -10.17051    7.45306
       O   -17.59858  -10.70345    6.59845
      H1   -18.37876  -10.42811    6.18810
       H   -16.31960   -8.67789    1.89261
       O   -15.91881   -8.50199    1.01059
      H1   -15.28191   -9.24996    0.90918
       H   -18.05858    1.07736    0.34421
       O   -17.34827    1.10523    1.02256
      H1   -17.02827    0.18791    1.01713
       H   -15.59393   -4.23874    0.64924
       O   -15.10202   -3.54856    0.25952
      H1   -15.29135   -2.72506    0.81349
       H   -12.93136   -1.05498    4.95190
       O   -12.60521   -0.75592    5.84274
      H1   -11.90702   -1.40369    5.85765
       H   -16.25427   -9.56648    6.49989
       O   -15.34325   -9.26863    6.22516
      H1   -15.13356  -10.11322    5.78112
       H   -18.03104   -9.89250   10.33653
       O   -17.47730  -10.09436    9.60525
      H1   -16.96699  -10.84806    9.86825
       H   -16.79383   -6.54161    7.42157
       O   -15.96533   -6.04434    7.24448
      H1   -16.26430   -5.28864    7.77357
       H   -18.42733   -7.54142   12.47360
       O   -17.66897   -6.95418   12.44310
      H1   -17.12125   -7.45038   11.79879
       H   -15.00408   -0.62671    0.80626
       O   -15.71846   -1.13059    1.14688
      H1   -15.59401   -0.81617    2.09301
       H   -16.84103    3.80772    2.18433
       O   -16.87319    3.85469    1.21413
      H1   -17.27005    2.92885    1.07835
       H   -15.18413    2.91910    6.16591
       O   -15.84593    2.22932    6.15318
      H1   -16.51375    2.62668    6.71110
       H   -19.51188  -10.31709    0.23883
       O   -18.92273  -10.97353   -0.22584
      H1   -19.22431  -10.82847   -1.11188
       H   -17.52154  -11.11932    1.21412
       O   -16.82799  -11.35834    1.86073
      H1   -17.21580  -11.60084    2.69226
       H   -14.37984   -7.81735    6.67686
       O   -13.46424   -7.50049    6.94274
      H1   -13.68543   -6.58477    7.14868
       H   -18.10044   -5.98783    3.31089
       O   -18.70014   -6.34760    2.57956
      H1   -17.97732   -6.78294    2.12114
       H   -17.11338   -0.95481   -1.85340
       O   -17.12174   -0.10617   -2.39176
      H1   -16.12152    0.15947   -2.20827
       H   -19.15430    0.04289    4.19522
       O   -19.19427    0.02949    3.20651
      H1   -18.26373    0.06389    2.99294
       H   -10.89451   -8.17242    1.30793
       O   -11.23557   -7.28306    1.29747
      H1   -11.67582   -7.16178    0.44255
       H   -13.19088   -4.09882    6.54404
       O   -12.51339   -4.71033    6.74814
      H1   -12.68479   -5.36645    6.06413
       H   -14.17783   -1.55793    3.38728
       O   -13.21014   -1.38449    3.18859
      H1   -13.16975   -0.68832    2.49710
       H   -17.78658   -7.04270   -1.49862
       O   -17.05740   -6.82632   -0.91205
      H1   -16.88828   -7.72541   -0.53462
       H   -11.34889   -6.10479    2.63852
       O   -11.29763   -5.29824    3.21818
      H1   -12.17710   -5.35929    3.62208
       H   -17.91973   -8.74960    3.93552
       O   -16.97180   -8.79694    3.58554
      H1   -16.38108   -8.44868    4.25486
       H   -18.69501   -1.26224   11.57460
       O   -19.34298   -1.84845   11.20798
      H1   -19.46098   -2.57489   11.88556
       H   -18.99250   -8.78996   -2.95330
       O   -19.07714   -8.16016   -2.16209
      H1   -19.60452   -7.38070   -2.48805
       H   -15.53082    1.25261    8.20443
       O   -15.22996    0.74867    8.98891
      H1   -14.38145    0.37675    8.73284
       H   -18.78413    0.73220    8.90941
       O   -18.68606   -0.10132    8.39205
      H1   -19.49835   -0.54609    8.68363
       H   -13.58209   -1.20706   10.11769
       O   -13.28639   -1.29141    9.20032
      H1   -13.83512   -2.03133    8.90703
       H   -13.06763   -5.38247   -1.31528
       O   -12.13533   -5.40276   -1.27946
      H1   -11.97571   -4.81844   -0.47758
       H   -12.61869   -9.04358    4.94006
       O   -12.45708   -8.52985    4.15176
      H1   -13.15836   -8.94481    3.60680
       H   -13.86816  -11.27969    3.34457
       O   -14.27936  -10.38484    3.30930
      H1   -14.85531  -10.51020    2.53740
       H   -14.94390   -3.27398    4.52923
       O   -15.24205   -3.43735    3.62280
      H1   -14.67681   -4.18655    3.37877
       H   -14.93946   -4.65633   10.86987
       O   -14.65005   -5.42380   10.36799
      H1   -13.94511   -5.76762   10.82978
       H   -15.01185   -2.28562    6.44026
       O   -14.23845   -2.77290    6.20559
      H1   -13.57229   -2.01717    6.25920
       H   -17.65365    4.09491    8.40749
       O   -17.77702    3.23187    7.96949
      H1   -18.79353    3.15436    7.95763
       H   -17.25777   -5.05957   -3.31267
       O   -18.05314   -4.53235   -3.09425
      H1   -17.67699   -3.73187   -2.61173
       H   -15.24933   -3.95219    9.04927
       O   -16.09484   -3.69019    8.61221
      H1   -16.64705   -3.61263    9.41561
       H   -18.43821    0.82990   -1.45793
       O   -19.10894    1.25905   -0.92584
      H1   -19.83036    0.61871   -0.92249
       H   -15.63171   -7.08272   10.18249
       O   -16.09112   -7.82309   10.56824
      H1   -16.44978   -8.32025    9.82154
       H   -17.08221    3.12708    4.71029
       O   -17.23195    3.82722    4.02116
      H1   -17.91747    4.36197    4.37830
       H   -15.16704    0.70805    3.98566
       O   -15.61686   -0.22081    3.91112
      H1   -15.84931   -0.31466    4.82920

