180
frame 11 | Written by MDAnalysis XYZWriter (release 2.4.3)
       H    -2.44245   16.88450   -1.57932
       O    -2.96890   17.31481   -0.90409
      H1    -2.66662   18.19467   -0.66586
       H     0.42734   14.35164   -1.51566
       O    -0.11764   13.93462   -2.21116
      H1    -0.83634   14.53966   -2.41737
       H    -2.29606   13.11407    3.30769
       O    -2.08105   13.99936    3.07380
      H1    -2.86981   14.23758    2.56871
       H    -8.00549   19.37537    2.26896
       O    -8.14569   18.60887    1.69813
      H1    -9.06796   18.40148    1.69318
       H     1.75336   17.08718    1.06870
       O     1.34920   17.74752    1.65256
      H1     0.42447   17.42539    1.48637
       H    -6.59169   17.94565    4.27419
       O    -5.90318   17.36744    4.00103
      H1    -6.04532   17.23881    3.07901
       H    -3.95010    8.05595   -0.82296
       O    -3.65257    7.98755   -1.72755
      H1    -4.23842    7.33730   -2.08753
       H    -3.65753   10.00867   -3.40929
       O    -3.56058   10.84348   -2.91411
      H1    -3.90328   10.70657   -1.97829
       H    -8.10463   11.48678   -3.71350
       O    -7.93373   12.22791   -4.28922
      H1    -8.23199   11.95190   -5.16247
       H    -7.61048   13.36697    0.43304
       O    -7.17133   12.54221    0.33966
      H1    -6.34973   12.71261   -0.13168
       H    -3.12309   19.69259    4.33445
       O    -3.13609   19.10141    3.55218
      H1    -3.60641   18.27720    3.72826
       H    -2.21069   15.37680   -3.45268
       O    -1.58580   16.04274   -3.07148
      H1    -1.46569   16.67252   -3.81987
       H    -6.41372   17.39621   -2.73887
       O    -6.96219   18.16795   -2.62705
      H1    -6.46247   18.71461   -1.93891
       H    -5.81025    7.13255    1.99895
       O    -5.15612    6.58639    2.47508
      H1    -4.35034    7.04397    2.63422
       H    -8.50042   17.77037    4.67729
       O    -8.04151   18.62830    4.95292
      H1    -7.72002   18.63500    5.82018
       H    -4.18400   16.20019    7.82132
       O    -3.40524   16.16636    8.49421
      H1    -2.74430   15.64829    8.01903
       H   -11.82075   18.10574    1.98819
       O   -10.90799   18.36330    2.30337
      H1   -10.60148   17.74233    2.93778
       H    -8.79228   12.06379    3.10289
       O    -8.61074   11.30433    3.72676
      H1    -8.59016   10.48115    3.24504
       H     1.56522   16.21629   -0.94912
       O     1.28342   15.45569   -0.42281
      H1     0.41683   15.69860    0.04536
       H    -1.66238   18.14934    4.19057
       O    -1.22163   17.50418    4.75404
      H1    -0.41787   17.93487    5.08239
       H    -9.71377   15.81437    3.90808
       O    -9.97390   16.66532    4.31436
      H1   -10.82789   16.61288    4.73677
       H    -5.17615    9.92978    4.79394
       O    -5.84578    9.53026    4.30166
      H1    -6.29539   10.21642    3.94467
       H    -0.25693   11.59582   -2.28404
       O    -0.58965   10.82094   -2.78851
      H1    -1.50981   10.80267   -2.76199
       H    -5.79037    9.35834    0.05891
       O    -6.33946    8.56321    0.22785
      H1    -6.50322    8.14387   -0.61569
       H    -7.82333   15.43950   -2.61670
       O    -7.23477   14.76800   -2.21047
      H1    -7.63782   13.95154   -2.54517
       H    -4.06720   15.69177   -5.53801
       O    -4.75313   16.30868   -5.24931
      H1    -4.52101   16.34040   -4.27523
       H     0.32528   14.48203    5.46804
       O     0.59349   14.27835    6.38604
      H1     1.01275   13.38898    6.44273
       H    -4.84137   11.86022   -3.73585
       O    -5.31231   12.68301   -3.83445
      H1    -6.21832   12.45733   -3.88917
       H    -0.58457   14.66562    3.66486
       O     0.08708   15.26135    3.95904
      H1    -0.45835   15.95370    4.32231
       H    -9.77916   14.81011   -1.43335
       O    -9.95759   14.93523   -0.50673
      H1   -10.57870   15.68555   -0.53365
       H    -1.09114   12.60561   -0.34267
       O    -0.78134   11.92542    0.21079
      H1    -0.17116   11.37346   -0.22961
       H    -8.86904   16.07044   -4.22206
       O    -8.97600   16.31939   -3.27198
      H1    -8.39292   17.14940   -3.15738
       H    -4.50188   14.14529    1.63601
       O    -3.97230   14.82966    1.15994
      H1    -4.42063   15.65221    1.11872
       H    -6.06485   13.00575    2.99955
       O    -5.39289   12.88898    2.30361
      H1    -5.90152   12.59622    1.54531
       H    -4.56896   11.47584   -0.44696
       O    -4.56211   10.50085   -0.33308
      H1    -3.81640   10.30908    0.20263
       H    -1.63440   15.65396    1.32930
       O    -1.14507   16.32700    0.86258
      H1    -1.89473   16.70053    0.35560
       H    -2.33920   13.95689    6.95568
       O    -1.81722   13.92743    7.76328
      H1    -0.88761   13.92650    7.44893
       H   -10.13634   13.55353    4.12308
       O    -9.63400   13.76214    3.29009
      H1   -10.29793   13.85893    2.62755
       H    -3.18954    7.71901    4.29032
       O    -3.11990    8.15855    3.43909
      H1    -4.05099    8.42740    3.39123
       H    -2.87048   10.95595    4.87617
       O    -2.58684   11.35619    4.03926
      H1    -3.03968   10.78730    3.36095
       H   -11.15343   13.19188    6.41737
       O   -10.50516   13.79657    5.94535
      H1    -9.78556   13.47621    6.52999
       H    -2.11007    9.32674    1.91897
       O    -2.43347    9.90697    1.18533
      H1    -1.78217   10.63964    1.01400
       H     0.70662   11.01670    3.02752
       O     1.09962   10.99489    2.13835
      H1     0.49687   11.52129    1.57773
       H    -4.73786   13.31737   -1.65966
       O    -4.71359   13.14455   -0.74452
      H1    -4.32173   13.96103   -0.26766
       H    -9.43096    8.68428    1.39031
       O    -8.75908    9.36935    1.47514
      H1    -7.96222    9.08205    1.01102
       H    -6.23087   17.19696    0.67463
       O    -5.37236   17.23573    1.12342
      H1    -5.02348   18.06296    0.90252
       H     2.19140   17.06506    2.97549
       O     2.62170   16.51837    3.67881
      H1     2.00154   15.77428    3.72647
       H    -4.41497   16.40234   -1.63812
       O    -4.86247   16.13287   -2.45413
      H1    -5.57612   15.44944   -2.26648
       H    -8.35422   15.94566   -0.40630
       O    -7.87950   16.74600   -0.24454
      H1    -8.17471   17.09761    0.60916
       H    -2.43293   10.52416    7.48500
       O    -2.94566   10.34842    6.67505
      H1    -3.77179   10.98429    6.70798
       H    -0.26790    8.97981    4.04180
       O    -0.20379    9.90435    4.30581
      H1    -1.10797   10.29485    4.27157
       H    -2.12704   17.81177    6.34841
       O    -2.56248   18.26107    7.11003
      H1    -2.77966   17.61753    7.77719
       H    -3.42743   13.14116   -3.89088
       O    -2.49799   13.38896   -3.94775
      H1    -2.08085   12.55103   -4.13633
       H    -5.50238   16.60773    5.58712
       O    -5.28492   15.99425    6.33880
      H1    -5.97338   15.95315    6.98683
       H    -8.11448   11.37823   -0.64496
       O    -8.59004   10.78730   -1.27165
      H1    -9.35018   10.53473   -0.71086
       H   -10.15010   10.29105    0.58923
       O   -10.87059   10.63971    0.15256
      H1   -11.55207    9.95524    0.07838
       H    -7.97879    9.51270   -2.30021
       O    -7.80752    8.89252   -3.06738
      H1    -8.63595    8.44690   -3.09350
       H   -12.32874   13.40871    1.23477
       O   -11.66274   14.14317    1.44464
      H1   -11.12106   14.26051    0.58530
       H    -3.98300   14.99782    5.71583
       O    -3.26806   14.36541    5.57258
      H1    -2.93060   14.66947    4.73300
       H    -5.17070   12.77806    6.63167
       O    -5.19997   11.90474    6.34984
      H1    -5.80747   11.49677    7.03612

