180
frame 4 | Written by MDAnalysis XYZWriter (release 2.4.3)
       H    -2.61759    3.93943    4.63922
       O    -3.34427    4.16149    4.07289
      H1    -3.73854    4.91233    4.59019
       H     0.45361    5.94375    7.02754
       O     0.70874    5.01637    6.77986
      H1     1.35243    5.08034    6.05932
       H    -4.49317    6.55413   10.74592
       O    -3.68022    6.76469   10.22699
      H1    -4.00360    7.45800    9.63611
       H    -2.51849   15.64470    5.90667
       O    -2.06545   14.99041    5.36751
      H1    -1.24434   14.69905    5.88443
       H    -0.82250   12.01137   11.87972
       O    -0.53778   11.58336   11.08911
      H1     0.18530   11.06649   11.38177
       H    -3.30121   11.82926   12.32717
       O    -2.51784   12.20258   12.80738
      H1    -2.42650   13.17954   12.64246
       H     3.94085    8.57409   10.02380
       O     3.77365    8.97773   10.95261
      H1     3.90653    8.11338   11.44173
       H    -1.91735    4.64308   10.24603
       O    -1.99546    3.84394    9.67318
      H1    -2.62149    4.16628    8.95395
       H    -6.55687    7.98443    7.55506
       O    -6.12453    8.82825    7.35586
      H1    -6.77756    9.44671    7.72683
       H    -0.31578    9.91129    5.56960
       O    -0.91963    9.28446    5.14416
      H1    -0.26762    8.78930    4.70440
       H    -1.21717   11.60134    8.07871
       O    -2.08277   11.62308    8.62421
      H1    -1.71031   11.47375    9.50550
       H     1.58066    4.06289    8.36980
       O     2.18293    3.65832    8.96095
      H1     2.28330    4.42028    9.59288
       H    -4.62831    4.20595    7.48511
       O    -3.81532    4.63800    7.79519
      H1    -4.17138    5.33336    8.33048
       H    -3.77221   13.34659    5.37220
       O    -4.27006   12.54279    5.57144
      H1    -4.70348   12.84856    6.36135
       H    -9.21122   10.97473    8.44705
       O    -8.62539   10.22330    8.22238
      H1    -9.45238    9.57368    8.19723
       H    -4.86815    3.85819   10.53937
       O    -5.58760    4.03725    9.93777
      H1    -6.08005    3.18375   10.04246
       H     2.03173    5.91610   11.76725
       O     2.55650    5.16931   11.33145
      H1     2.34879    4.39083   11.89160
       H     0.49670   10.62980    1.41909
       O     0.73411   10.08088    2.18617
      H1     0.21672    9.21571    2.09269
       H    -2.97291    8.46048    2.64869
       O    -3.80660    8.96064    2.79167
      H1    -3.45513    9.85971    2.77610
       H    -0.07720   12.88743    2.87589
       O     0.01925   12.69475    3.86216
      H1    -0.56692   11.95074    3.94341
       H    -6.23091    1.28072    6.56976
       O    -5.61951    2.03771    6.44292
      H1    -6.26412    2.77718    6.30660
       H    -7.68485    4.28915    5.62070
       O    -7.12842    4.44378    6.38916
      H1    -6.45405    5.02710    5.92724
       H    -5.30948    6.83883    4.52093
       O    -5.40518    5.87992    4.52600
      H1    -5.58084    5.65445    3.59200
       H    -5.16890    8.80024    1.54845
       O    -5.92309    8.83994    0.96496
      H1    -6.56774    8.33080    1.44096
       H     1.44319   15.22478    5.84779
       O     0.73507   14.59469    6.05489
      H1     0.67555   14.07525    5.23959
       H    -8.36868    8.74333    4.71091
       O    -9.35283    8.96556    4.56237
      H1    -9.46504    9.81950    5.01395
       H     0.04164    9.93339    7.34658
       O     0.08144   10.91669    7.08010
      H1     1.02691   11.04869    7.15182
       H    -6.50513    8.87179    5.71308
       O    -6.54695    8.64440    4.73252
      H1    -6.33827    9.46323    4.33779
       H    -1.85087    7.33407   10.76641
       O    -0.93342    7.04615   10.82940
      H1    -0.49218    7.70445   10.28325
       H    -7.90265   11.05420    9.92201
       O    -7.43765   10.87216   10.77364
      H1    -6.82190   11.58146   10.84966
       H     3.51808   11.73252    7.88225
       O     2.81212   11.50682    7.20336
      H1     2.70304   12.39194    6.85314
       H    -0.82138    7.89129    1.27468
       O    -0.65193    7.78513    2.23375
      H1    -0.71961    6.82207    2.23293
       H    -5.84676   13.52768    8.47412
       O    -5.65815   12.63526    8.04825
      H1    -5.16337   12.13804    8.70013
       H    -6.32666    9.64466   11.00661
       O    -5.70706    8.88310   10.84669
      H1    -4.93811    9.47244   10.52179
       H    -4.55813   13.69537   10.78170
       O    -5.15338   13.15924   11.30209
      H1    -5.57374   13.90035   11.77768
       H    -1.91860    3.15708    6.86116
       O    -1.35195    3.34776    6.14081
      H1    -0.53381    3.78309    6.45827
       H    -2.41706   13.18380    9.30624
       O    -2.47580   14.10486    9.69543
      H1    -1.83397   14.52562    9.08604
       H    -0.47159    4.50420    2.27854
       O    -1.25804    5.05297    2.11208
      H1    -1.93827    4.54690    2.63913
       H    -5.86205   12.09646    4.64869
       O    -6.78048   11.72589    4.56612
      H1    -7.20969   12.25714    5.27834
       H    -7.59621    5.88859    7.50364
       O    -7.97710    6.69489    7.85414
      H1    -8.03094    6.46055    8.74947
       H     2.76614    5.48555    3.81415
       O     2.34580    5.80144    4.60966
      H1     2.47579    6.74240    4.51489
       H    -3.25621    5.05100   14.42674
       O    -3.87162    4.50633   13.91071
      H1    -4.13414    5.21377   13.27233
       H     2.33034   12.56556   11.36008
       O     1.89115   12.96441   10.62956
      H1     1.02101   12.60545   10.76949
       H     0.36702    2.47204   11.41822
       O    -0.26607    1.86591   11.05475
      H1    -0.74984    2.57376   10.59253
       H     1.07815    8.39077    7.40516
       O     0.26042    8.54926    7.88639
      H1    -0.31927    7.91278    7.38632
       H     5.12341    7.10395    7.67429
       O     4.39962    7.16308    8.31299
      H1     4.59345    6.41945    8.94479
       H    -8.02747   11.70548    6.73646
       O    -8.51654   12.49069    6.51760
      H1    -8.23753   13.10103    7.20845
       H    -3.25372    9.93281    8.56823
       O    -3.72190    9.14254    8.82074
      H1    -4.41139    8.96627    8.15573
       H    -1.25749    5.00856   13.59904
       O    -0.69751    4.78605   12.87741
      H1    -0.86692    5.46443   12.28191
       H    -5.51492    7.35225   11.91938
       O    -5.55030    6.43213   12.29120
      H1    -6.35406    6.07102   11.87215
       H    -2.21131   11.51324    1.40746
       O    -1.98807   11.62761    0.48212
      H1    -1.40729   12.39505    0.46586
       H    -2.58093    8.11885    7.60607
       O    -2.04306    7.57250    6.94907
      H1    -2.05211    8.24024    6.18599
       H     0.33894    7.37484   12.07805
       O     1.03489    7.56384   12.79534
      H1     0.47087    7.39120   13.56604
       H   -10.08616    7.87030    5.82303
       O   -10.35624    7.20306    6.44614
      H1    -9.65346    7.06817    7.11283
       H     3.26741    7.90969    6.76515
       O     2.39970    8.21511    6.36688
      H1     2.68930    8.88666    5.75257
       H     1.50683   10.61288    3.77920
       O     2.23134   10.59121    4.43258
      H1     2.42019   11.54457    4.57807
       H    -3.64014    2.40349    9.04605
       O    -3.67257    1.43914    8.96629
      H1    -3.97164    1.42782    8.07111
       H    -2.92952   11.62265    4.48018
       O    -2.44210   11.09438    3.79225
      H1    -2.08736   10.33452    4.33184
       H     1.83249    8.95172   10.43096
       O     0.86944    9.21143   10.50511
      H1     0.67752    9.16795    9.60790
       H    -4.90305    1.20791    4.81027
       O    -4.52078    1.44093    3.90875
      H1    -4.37562    2.41397    3.96947

