180
frame 0 | Written by MDAnalysis XYZWriter (release 2.4.3)
       H    -5.51068  -15.74288   -2.67844
       O    -4.84601  -16.30465   -3.03736
      H1    -4.12719  -15.58677   -3.01269
       H     3.31073  -17.62890   -1.93134
       O     3.49057  -18.44391   -1.48627
      H1     3.63184  -18.21394   -0.51614
       H    -6.73879  -14.09605    7.93444
       O    -5.89348  -14.11921    7.43030
      H1    -5.31656  -13.56098    7.98273
       H    -0.78229  -13.19368    1.62709
       O    -1.60802  -13.63623    1.64013
      H1    -2.02972  -13.21021    2.42595
       H    -9.06562  -14.76662    8.63518
       O    -8.42305  -14.10284    8.36811
      H1    -8.82396  -14.02000    7.49796
       H     1.94125  -14.49016    6.78356
       O     1.51955  -13.66589    7.07585
      H1     0.99854  -13.36477    6.25914
       H    -2.70481  -11.63134    6.08900
       O    -2.72839  -10.78770    5.59883
      H1    -1.79886  -10.62217    5.70648
       H    -0.50013  -15.72176    8.44783
       O    -0.19015  -15.59215    7.55356
      H1     0.59364  -15.00378    7.63939
       H    -5.61197  -13.68909    0.82145
       O    -5.10053  -12.92127    0.59745
      H1    -4.68594  -12.72377    1.44798
       H    -7.15753  -13.13641    2.20934
       O    -7.77261  -13.83683    2.20255
      H1    -7.39569  -14.45000    2.88015
       H    -5.08316  -16.02881    9.67426
       O    -6.03941  -15.81003    9.52316
      H1    -5.94400  -15.14998    8.78375
       H   -10.09474  -15.24581    0.20470
       O   -10.05273  -14.74474    1.05373
      H1    -9.06304  -14.58724    1.15216
       H    -7.72888  -10.78795    2.85846
       O    -6.75654  -10.98304    2.92725
      H1    -6.66747  -11.24833    3.84407
       H     0.59656  -18.08089   10.01459
       O     0.11135  -17.68594   10.76254
      H1    -0.53790  -18.38259   11.03204
       H   -10.40159  -16.15595    4.08610
       O    -9.77294  -15.41763    3.99912
      H1   -10.04197  -14.97166    3.19872
       H     0.31713  -17.40043    7.14783
       O     0.09983  -18.30124    7.26633
      H1    -0.10310  -18.58332    6.38991
       H    -2.57109  -14.15164   -2.25416
       O    -2.78411  -14.39739   -3.19076
      H1    -2.67058  -13.51400   -3.55000
       H     1.65384  -12.38126    2.15888
       O     0.67531  -12.35171    1.97166
      H1     0.42694  -11.49897    1.48496
       H    -0.68697  -16.68143   -3.44835
       O    -0.33751  -15.85696   -3.78941
      H1    -1.17581  -15.34328   -3.66484
       H    -2.52980  -10.53926    2.51578
       O    -1.91556   -9.83829    2.78562
      H1    -2.49558   -9.01291    2.84672
       H    -4.45533  -17.64688   10.99526
       O    -3.79140  -17.06727   10.60480
      H1    -3.34965  -17.62948    9.98260
       H     3.89067  -19.94966    4.58548
       O     3.44628  -19.36622    5.27943
      H1     4.15272  -19.34266    5.93693
       H    -6.81179  -13.64683   -1.74200
       O    -6.82235  -14.62833   -1.79969
      H1    -6.34175  -14.79204   -0.92821
       H    -4.57046  -18.10965   -1.54522
       O    -4.76533  -19.01286   -1.81991
      H1    -5.44283  -18.76181   -2.40919
       H    -4.90663  -15.98621    0.48833
       O    -5.78490  -15.57956    0.50638
      H1    -6.39676  -16.20313    0.87912
       H    -1.64509  -18.64586    8.37966
       O    -2.60155  -18.50531    8.61339
      H1    -2.98543  -18.82288    7.78839
       H     3.29146  -17.79740    4.66425
       O     3.16187  -16.84799    4.58461
      H1     3.16890  -16.53475    5.49857
       H    -1.73173  -19.53064    0.91631
       O    -2.23744  -19.28457    1.77386
      H1    -1.53480  -19.09258    2.36932
       H    -3.12410  -10.48842    7.62172
       O    -3.06642   -9.78299    8.26673
      H1    -2.60715   -9.06850    7.69773
       H     0.10440  -10.57610    7.59305
       O    -0.37207  -10.13043    6.88584
      H1     0.31070   -9.54003    6.60022
       H    -2.40808  -12.85958    8.11279
       O    -3.09049  -12.92235    7.40132
      H1    -2.88771  -13.80933    6.99633
       H    -1.35592  -13.73181    9.83640
       O    -1.38970  -12.82086    9.48556
      H1    -2.16939  -12.44680    9.96272
       H    -2.24753  -15.69675   10.35252
       O    -1.34713  -15.41421   10.07360
      H1    -0.83105  -16.22262   10.40323
       H    -4.18933  -16.50004    6.54752
       O    -4.66840  -17.28892    6.14661
      H1    -5.60231  -17.14296    6.32639
       H    -7.75797  -16.33430    6.71913
       O    -7.89279  -16.87568    5.95531
      H1    -8.64548  -17.48921    6.15898
       H    -1.28859  -12.10195   -0.79862
       O    -0.37486  -11.93711   -1.06539
      H1    -0.13937  -12.86612   -1.04876
       H     4.60445  -16.56957    2.12302
       O     5.12164  -16.37403    2.89551
      H1     4.42972  -16.56171    3.58090
       H    -0.35798  -14.19449    4.49593
       O     0.26386  -13.45836    4.52797
      H1     0.24378  -12.88634    3.69868
       H    -9.08098  -18.86365   -0.15288
       O    -8.95717  -19.87535   -0.11586
      H1    -7.97634  -19.93566   -0.40834
       H    -7.04763  -15.62044    4.75215
       O    -6.67574  -15.48308    3.90192
      H1    -6.68087  -16.39560    3.50404
       H    -3.69437  -13.43399   -0.34842
       O    -2.79078  -13.49288   -0.71576
      H1    -2.27651  -13.53576    0.08948
       H    -6.11148  -18.17907    2.32305
       O    -6.97288  -17.76153    2.37213
      H1    -7.45043  -18.30203    3.03077
       H    -8.18195  -12.77709    5.30514
       O    -8.87928  -13.29860    5.69869
      H1    -9.05190  -13.99299    5.07391
       H     0.39917  -17.42704    0.49023
       O     0.74662  -17.13531   -0.40972
      H1     0.21502  -17.71047   -0.96937
       H    -1.92009  -15.57739    6.69873
       O    -2.79101  -15.32392    6.35190
      H1    -2.56312  -15.42200    5.37342
       H     2.69274  -18.83555    9.04279
       O     1.77593  -19.14813    9.16269
      H1     1.51356  -18.92535    8.22410
       H     3.42681  -16.60805    7.76014
       O     3.11598  -15.92879    7.09815
      H1     3.62757  -15.13824    7.41212
       H    -0.37868  -10.49130    0.11955
       O     0.00088   -9.81343    0.74215
      H1    -0.76556   -9.73392    1.31386
       H     1.55842  -14.31928    0.75835
       O     1.28444  -14.46612   -0.16938
      H1     1.05788  -15.42399   -0.13576
       H    -9.45059  -16.44019    1.15490
       O    -8.97355  -17.14440    0.63344
      H1    -8.17528  -17.31159    1.18485
       H    -2.51790  -17.19504    0.78278
       O    -3.22021  -16.54158    1.00488
      H1    -3.54599  -16.94797    1.83576
       H    -5.88471  -11.36857    6.14444
       O    -6.13151  -12.10283    5.53936
      H1    -6.13850  -12.71414    6.33022
       H     0.00895  -12.07037    8.95113
       O     0.74804  -11.48502    8.79703
      H1     1.26126  -11.95821    8.16067
       H    -4.18748  -17.71624    4.46454
       O    -4.33395  -17.22795    3.60678
      H1    -4.95362  -16.51014    3.94211
       H    -3.09297  -11.89030    4.21531
       O    -3.57119  -12.52227    3.62965
      H1    -4.38346  -12.77220    4.10566
       H    -6.52457  -19.34325    9.87014
       O    -7.19630  -18.77324   10.21164
      H1    -6.85609  -17.83044   10.29316
       H     1.71461  -18.60620    3.07636
       O     1.17090  -17.82349    3.04879
      H1     1.67919  -17.16054    3.55927
       H    -2.48717  -16.35340    3.81247
       O    -1.67103  -15.81850    3.91776
      H1    -1.42637  -15.49574    3.04014
       H    -0.38531  -19.73646    4.54592
       O    -0.73334  -18.79858    4.68529
      H1    -0.03512  -18.24584    4.26590
       H    -1.38485  -18.95564   -3.64321
       O    -0.57972  -18.54685   -3.23224
      H1     0.04442  -18.76509   -3.96049

