180
frame 1 | Written by MDAnalysis XYZWriter (release 2.4.3)
       H    -9.61424   11.84528  -10.30333
       O    -8.93889   11.14346  -10.16419
      H1    -8.33275   11.35185  -10.91449
       H   -16.86257    6.39886   -4.86670
       O   -16.73199    6.51110   -3.90659
      H1   -16.00626    5.92717   -3.94103
       H   -11.53126    8.05552  -10.89564
       O   -11.15146    7.33382  -10.34583
      H1   -10.66359    7.95948   -9.81858
       H   -12.89575    3.56423  -11.31335
       O   -13.11072    2.83545  -12.00126
      H1   -13.78269    3.33820  -12.52489
       H   -17.99235   11.53808   -8.44217
       O   -17.36423   12.02656   -8.97208
      H1   -17.32756   12.86125   -8.56492
       H   -13.48857    4.85799   -8.34723
       O   -14.12542    5.20641   -7.68664
      H1   -14.67947    5.79471   -8.23907
       H   -12.50763    9.21737  -14.58664
       O   -13.37220    9.64186  -14.19255
      H1   -13.97883    8.96438  -14.58174
       H   -15.44610    3.40354  -13.00558
       O   -15.76354    2.50098  -13.04347
      H1   -16.11451    2.32976  -12.11682
       H   -19.16346   14.84028  -10.75291
       O   -19.62624   15.23816  -10.03041
      H1   -19.02710   15.98386   -9.80472
       H   -16.22869   14.78078  -14.36115
       O   -16.15053   15.38763  -13.56761
      H1   -16.70578   14.93690  -12.93887
       H   -12.51960    9.87825  -12.42565
       O   -12.63949    9.71515  -11.46838
      H1   -12.90221   10.62497  -11.20625
       H   -16.37842   17.16866   -9.96631
       O   -15.43489   17.46236   -9.85915
      H1   -15.17988   17.31330  -10.74735
       H   -14.76669   15.92033  -12.44623
       O   -13.99021   16.46559  -12.13961
      H1   -13.80554   17.06677  -12.85123
       H   -14.51859    6.85134   -4.79565
       O   -14.25234    5.93612   -4.54536
      H1   -13.99723    5.64675   -5.43196
       H   -16.16901    5.64753  -14.06769
       O   -16.76847    6.27877  -14.54075
      H1   -17.59073    5.87384  -14.33946
       H   -13.72163    5.24464  -13.61683
       O   -14.54551    4.76778  -13.81780
      H1   -14.37063    4.52406  -14.73638
       H   -18.00239    2.90638  -10.54895
       O   -17.47011    2.15618  -10.85227
      H1   -17.41608    1.71392   -9.95717
       H   -14.71729   10.67239   -8.45329
       O   -14.69275   11.46734   -7.96213
      H1   -15.55521   11.92896   -8.20736
       H   -11.53028    7.85341  -15.21152
       O   -11.23908    8.76197  -15.19672
      H1   -11.46948    9.10516  -16.07038
       H   -16.57016   16.62318   -6.26546
       O   -16.11263   15.91117   -5.87593
      H1   -16.85268   15.52120   -5.32358
       H   -15.83567    7.55315   -9.09149
       O   -16.06100    6.59998   -9.05124
      H1   -16.92102    6.61338   -9.49035
       H   -17.18077    7.26027  -17.38805
       O   -17.58733    6.38512  -17.09619
      H1   -17.12538    6.35476  -16.27226
       H   -11.87654    9.60114   -6.45411
       O   -11.72558    8.75942   -5.94362
      H1   -11.00288    9.00560   -5.36087
       H   -16.16948   12.05864  -15.01719
       O   -16.41087   11.37502  -14.35229
      H1   -15.92336   11.78492  -13.60145
       H   -16.72743   13.72395  -17.63817
       O   -16.77495   13.13766  -18.38869
      H1   -16.08502   12.44865  -18.14584
       H   -18.78472    5.86410   -6.14198
       O   -19.76805    5.89652   -6.12496
      H1   -19.84980    5.70123   -5.16754
       H   -16.74693    4.62594   -6.16441
       O   -17.07005    5.45527   -6.56934
      H1   -16.55449    5.39537   -7.41969
       H   -19.15196   16.84683  -12.70413
       O   -18.28722   17.24261  -12.51558
      H1   -17.60028   16.59480  -12.83676
       H   -16.66730    8.11397   -7.32767
       O   -16.74917    8.31620   -6.37779
      H1   -17.73369    8.51952   -6.29341
       H   -10.56630   14.17617  -10.49478
       O   -10.81736   13.51257   -9.87021
      H1   -10.80667   13.93790   -9.00477
       H   -19.54263   11.76513   -3.58103
       O   -18.88514   11.26677   -4.11199
      H1   -19.26783   11.22507   -5.01628
       H   -13.01810   15.09487   -7.61448
       O   -12.68593   15.97338   -7.92293
      H1   -13.22038   16.61522   -7.48196
       H   -18.96740    6.09124  -10.04230
       O   -18.62589    6.96631   -9.94602
      H1   -19.38817    7.42172   -9.62008
       H   -16.33744   15.12080   -8.72124
       O   -16.02309   14.37697   -8.21062
      H1   -15.92387   14.78261   -7.34113
       H   -12.79104    8.02106  -11.95573
       O   -13.04583    7.15616  -12.29138
      H1   -12.41620    6.84777  -12.95138
       H   -11.82472   16.27874  -14.15755
       O   -11.43373   15.56462  -13.61063
      H1   -11.95172   15.53626  -12.80979
       H   -12.86399   13.02738  -14.27615
       O   -12.04400   12.99352  -13.80323
      H1   -11.82629   13.93572  -13.70849
       H   -19.82486   11.34054   -7.11221
       O   -19.03657   10.80998   -6.96122
      H1   -19.52960   10.01657   -6.96680
       H   -13.66855   11.38856  -15.42521
       O   -13.82140   12.21896  -15.85052
      H1   -12.97529   12.63660  -16.01766
       H   -12.54226   16.83440   -9.50996
       O   -12.13700   17.32516  -10.23654
      H1   -12.65596   17.00557  -10.99089
       H   -18.19283   17.42434  -10.93514
       O   -18.06251   17.27069   -9.93086
      H1   -18.33281   18.16934   -9.60965
       H   -12.10110    6.24068  -15.84277
       O   -12.15900    6.10927  -14.88762
      H1   -11.62617    5.28664  -14.82554
       H   -11.85843    4.66329   -9.97116
       O   -12.82928    4.80118  -10.02890
      H1   -12.87142    5.70980  -10.31627
       H   -10.68949    9.79782   -8.36782
       O    -9.99819    9.26407   -8.77948
      H1    -9.65719    9.88588   -9.44262
       H   -13.68916   12.28206   -9.39069
       O   -13.17448   12.23807  -10.24726
      H1   -12.50253   12.92964  -10.13521
       H   -14.50312   11.12164   -5.87528
       O   -14.57164   11.23480   -4.92985
      H1   -14.55326   10.24956   -4.73365
       H   -12.82085   13.78222   -5.59486
       O   -12.65328   13.59660   -6.49336
      H1   -11.74543   13.87740   -6.52408
       H   -18.09346    8.04030   -3.83231
       O   -18.94567    8.45664   -4.23914
      H1   -18.82286    9.42016   -3.87636
       H   -18.85301   13.76625  -12.56366
       O   -18.06921   14.06928  -12.04843
      H1   -17.53173   13.25716  -12.16929
       H   -17.59808   10.11808  -11.45168
       O   -16.76680   10.32257  -10.96722
      H1   -17.12905   10.94485  -10.31566
       H   -17.38267    9.61839  -18.07434
       O   -16.45418    9.26333  -17.92252
      H1   -16.41879    9.32785  -16.92050
       H   -15.90400   11.61784  -11.57419
       O   -15.76173   12.50375  -11.98672
      H1   -14.89640   12.77861  -11.66181
       H   -19.25123   12.07319  -13.97183
       O   -18.77021   12.55528  -14.67129
      H1   -17.90211   12.12409  -14.55930
       H   -13.64282    8.52983   -5.57856
       O   -14.40266    8.51054   -5.01895
      H1   -15.10212    8.65160   -5.72154
       H   -11.69359   11.89003   -7.05734
       O   -11.71620   11.01043   -7.50165
      H1   -11.99134   11.31810   -8.39717
       H   -16.05056    9.56743  -14.56600
       O   -15.83891    8.85300  -15.14535
      H1   -16.23136    8.09502  -14.63471
       H   -17.45531   11.91860   -3.69442
       O   -16.63242   12.40576   -3.35232
      H1   -15.99720   11.93457   -3.93216
       H   -15.49817    9.46315   -9.86682
       O   -14.86883    9.12925   -9.17806
      H1   -14.01496    8.90759   -9.66166
       H   -17.66126   13.85710  -15.46365
       O   -16.76010   14.07063  -15.79412
      H1   -16.92115   14.87196  -16.33772
       H   -19.08066   11.08385  -18.14089
       O   -19.02215   10.25816  -18.67858
      H1   -18.62201   10.68596  -19.41105

