180
frame 10 | Written by MDAnalysis XYZWriter (release 2.4.3)
       H     3.66454  -11.36467   18.60494
       O     3.69430  -10.47224   18.92294
      H1     3.19808  -10.53541   19.78137
       H     4.76486    1.08557   10.61967
       O     4.78846    0.11425   10.72999
      H1     4.18684    0.15429   11.51619
       H     4.08710  -10.48956   10.78920
       O     3.54675  -11.24832   10.97588
      H1     3.88538  -11.84408   10.29298
       H    -0.82719   -6.48604   18.49556
       O    -0.42522   -5.71473   18.89059
      H1    -0.53987   -5.04647   18.20328
       H     0.99284   -9.88205   14.33066
       O     0.47324   -9.18246   13.94054
      H1     0.23520   -9.61692   13.05893
       H     2.31366   -2.90350   15.09534
       O     3.13900   -2.98368   15.51243
      H1     2.89435   -2.81056   16.43612
       H     5.01603   -0.75277   18.44977
       O     4.61999   -1.33369   19.10341
      H1     3.90434   -0.76579   19.51266
       H    10.18268   -3.75023   14.26224
       O    10.01451   -4.50969   14.87393
      H1    10.24444   -4.14012   15.73337
       H     2.51518   -2.16207   18.31894
       O     2.17229   -3.04121   18.12615
      H1     2.71824   -3.63134   18.57370
       H     6.47288   -0.58467   10.49996
       O     7.22947   -1.18372   10.48434
      H1     7.32910   -1.24255   11.45539
       H     8.67246   -2.07610   19.21127
       O     9.04935   -2.92285   19.41863
      H1     9.53598   -3.08417   18.58092
       H     1.38555    0.68109   12.17935
       O     1.66245   -0.12474   11.72382
      H1     1.66858    0.10485   10.77176
       H    -2.30717   -7.85946   17.30486
       O    -3.16154   -7.36426   17.40056
      H1    -3.67157   -8.15761   17.24308
       H     7.77476   -1.92400   13.74405
       O     8.13665   -2.48678   13.06353
      H1     7.63061   -3.29259   13.09527
       H     6.31136   -5.70740   16.92018
       O     5.70277   -6.46121   17.27479
      H1     4.98331   -6.33149   16.60447
       H     0.89483   -6.32979   18.32159
       O     1.74403   -6.84190   18.06123
      H1     1.45022   -7.64205   17.66695
       H     3.04193   -8.15081    8.84481
       O     3.69921   -8.04420    9.57302
      H1     4.17379   -7.20639    9.33804
       H     7.13380    0.42175   13.04253
       O     6.51680    0.74213   13.73125
      H1     6.35282    1.67432   13.44688
       H     4.45041   -8.64410   12.33736
       O     5.22969   -9.19958   12.30822
      H1     5.94084   -8.52122   12.40851
       H     0.65002    0.06016   16.89143
       O     1.54819   -0.01670   17.29555
      H1     1.93717    0.83888   16.99820
       H     6.30819   -7.85148   16.42584
       O     6.60132   -8.54911   15.78209
      H1     6.42480   -9.42397   16.11889
       H     8.25684   -7.88816   16.70720
       O     9.20224   -7.86228   16.75768
      H1     9.31590   -7.73508   17.72510
       H     8.09515   -4.91569   15.89559
       O     7.35266   -4.54355   16.44217
      H1     7.81783   -4.53230   17.30265
       H    10.22421   -5.76801   11.35344
       O     9.51178   -6.30874   11.67801
      H1     9.94913   -7.18728   11.63790
       H    -2.17721   -1.19200   16.19235
       O    -2.62235   -2.09766   16.21878
      H1    -1.91456   -2.63267   16.53314
       H     0.23460  -10.31180   11.20596
       O    -0.58727  -10.01330   11.60136
      H1    -0.81044   -9.13586   11.28178
       H     8.00485  -10.76152   12.64988
       O     7.70632  -10.40302   11.84501
      H1     6.78731  -10.25656   11.97628
       H     0.10544   -2.88920   12.66230
       O    -0.84847   -3.07782   12.67559
      H1    -1.26664   -2.98879   11.81095
       H     3.17400   -6.92687   13.92193
       O     3.01867   -7.47664   13.11067
      H1     2.29915   -8.04404   13.38695
       H     2.73532   -9.76984   17.47091
       O     2.20241   -9.41964   16.70787
      H1     2.69148   -9.92291   16.05400
       H     4.85844  -10.82839   15.92179
       O     5.60190  -11.11844   16.44049
      H1     5.29916  -10.91651   17.36695
       H     6.09573    0.95405   17.65619
       O     5.46403    1.46778   18.22608
      H1     5.98431    1.74852   19.01023
       H    11.32471   -3.37644   17.15228
       O    10.73229   -4.04826   17.54150
      H1    11.32328   -4.71262   17.87461
       H     4.51204  -10.48476   13.69969
       O     3.89568  -10.74624   14.43139
      H1     3.72410  -11.68369   14.23324
       H     2.50880   -5.19201    9.41634
       O     2.15865   -5.33959    8.47893
      H1     3.00600   -5.55817    8.03741
       H     2.32052   -3.45394   12.49244
       O     1.79442   -2.90461   13.00854
      H1     1.92282   -2.03975   12.61736
       H    10.73826   -8.25156   15.55929
       O    11.67272   -8.36064   15.67040
      H1    11.84149   -9.08137   15.00169
       H     3.13061   -1.98057    9.62070
       O     2.63182   -2.79741    9.73435
      H1     2.12598   -2.92020    8.94150
       H     2.25082   -6.28998   12.05523
       O     1.71160   -5.80445   11.42360
      H1     1.72326   -6.39425   10.64228
       H    -0.61384   -4.51306   16.33812
       O    -0.65732   -3.80655   17.01519
      H1     0.23068   -3.63575   17.41493
       H     4.84669    0.11470   14.58156
       O     3.97059   -0.24678   14.50486
      H1     4.09358   -1.17546   14.81213
       H    -1.19410   -8.66865   14.07484
       O    -2.11763   -8.36771   13.86831
      H1    -2.22304   -7.49160   14.30980
       H     7.79059   -6.07375    9.18088
       O     7.58182   -6.74422    9.86252
      H1     8.08075   -6.55854   10.67603
       H     0.06518  -12.06216   15.00663
       O     0.92247  -11.66498   15.24380
      H1     1.48429  -12.30748   14.74436
       H     7.10219   -5.78231   19.59355
       O     7.93754   -5.51739   19.16175
      H1     8.12170   -4.64186   19.57806
       H     0.35967   -5.34324   14.48663
       O    -0.22785   -5.82802   15.09076
      H1    -1.09371   -5.65371   14.62492
       H     7.42812    0.49372   15.43289
       O     7.84380    0.10117   16.19253
      H1     7.47832   -0.80597   16.18376
       H    -0.32393   -8.99806   16.77074
       O    -0.46978   -8.08932   17.14104
      H1    -0.30809   -7.44216   16.45519
       H     5.44007   -2.39411   16.59440
       O     6.14535   -2.13614   15.95022
      H1     6.66868   -2.94019   15.97687
       H     0.47909  -11.07396   17.25367
       O     0.28471  -11.28390   18.18475
      H1     0.51008  -10.49491   18.69205
       H     6.62108   -5.38863   13.31471
       O     6.21161   -4.51476   13.26946
      H1     5.72067   -4.52082   12.44768
       H     3.07835    1.64710   14.73621
       O     2.99062    2.59770   14.81283
      H1     2.97618    2.63725   15.77578
       H     3.25407   -5.92177   18.89642
       O     3.91310   -5.20188   19.02497
      H1     4.60731   -5.55726   18.42199
       H     3.79354   -4.59291   15.15438
       O     4.09787   -5.52376   15.08972
      H1     4.94230   -5.28972   14.61578
       H    10.57718   -1.54501   13.86223
       O    10.90939   -2.30238   13.33544
      H1    10.20192   -2.53645   12.70749
       H     6.11379   -3.89486    9.84491
       O     6.72702   -3.53434    9.21227
      H1     7.14245   -2.79966    9.78955
       H     6.00202   -6.14963   10.14432
       O     5.24792   -5.59036   10.41748
      H1     4.81499   -6.25933   10.96429
       H     8.20965   -7.09504   13.56435
       O     7.23560   -7.07173   13.42926
      H1     7.02770   -7.59318   14.27266
       H    -0.33492   -6.81049   11.52897
       O    -1.14100   -7.32111   11.32612
      H1    -1.52195   -7.63019   12.15278
       H    -3.51419   -5.18420   14.58451
       O    -2.66852   -5.44749   14.07456
      H1    -2.65379   -4.64815   13.54321

