180
frame 7 | Written by MDAnalysis XYZWriter (release 2.4.3)
       H   -16.29617   -7.05323   -2.32911
       O   -15.94118   -6.84402   -3.20241
      H1   -16.70195   -7.14140   -3.74616
       H   -11.39692   -3.01526   -3.75387
       O   -12.13916   -2.90887   -3.10184
      H1   -12.97929   -3.14484   -3.54797
       H   -11.46193   -6.28926   -2.30258
       O   -11.84272   -7.18055   -2.48557
      H1   -11.05126   -7.76948   -2.41203
       H   -15.55353   -7.40694    2.12639
       O   -16.07845   -6.61325    1.98714
      H1   -16.96851   -6.93383    2.14789
       H   -10.00339   -3.84962   -5.30329
       O   -10.92039   -3.67364   -5.40440
      H1   -11.34798   -4.52642   -5.59303
       H   -10.71981   -2.95836    0.15885
       O   -10.13872   -2.29971   -0.24231
      H1    -9.29673   -2.72529   -0.07312
       H   -15.67176   -3.89909   -8.31207
       O   -16.62851   -3.79953   -8.14994
      H1   -16.66899   -2.93579   -7.66720
       H   -15.88220   -1.72624   -0.07746
       O   -16.25343   -1.94263   -0.97131
      H1   -17.17938   -2.09968   -0.76806
       H   -11.86554  -11.95652   -2.78908
       O   -11.84114  -12.69185   -3.43904
      H1   -12.53011  -13.27308   -3.17372
       H   -12.95559   -3.00733    1.30116
       O   -12.22585   -3.65170    1.12760
      H1   -12.17381   -4.14507    2.04092
       H   -10.51232   -6.12210   -7.50649
       O   -11.20404   -6.44214   -6.85179
      H1   -10.88031   -7.30975   -6.64920
       H   -17.94336   -7.30327   -8.62560
       O   -18.03520   -7.81239   -9.44170
      H1   -17.22780   -8.31215   -9.40758
       H   -17.86064  -13.05124   -3.84465
       O   -17.73636  -13.05397   -2.89896
      H1   -18.57241  -12.73962   -2.51353
       H   -14.49521   -1.11054   -5.39455
       O   -14.25832   -0.46314   -6.06975
      H1   -13.48061   -0.85419   -6.48337
       H   -13.88585   -8.36775   -1.75327
       O   -14.13016   -9.27721   -1.56123
      H1   -13.33808   -9.78146   -1.30143
       H   -17.39899   -5.61306   -7.42235
       O   -17.95459   -6.28507   -7.05746
      H1   -18.82627   -5.92568   -7.27964
       H   -17.54159   -3.24804   -5.28702
       O   -18.29297   -3.28801   -4.70497
      H1   -17.94643   -3.28585   -3.80287
       H   -12.63512   -7.83792   -3.96128
       O   -12.95627   -8.38317   -4.72526
      H1   -13.85673   -8.06972   -4.89068
       H   -15.91678   -9.70070    1.42272
       O   -15.09851   -9.18772    1.33255
      H1   -15.21378   -9.08549    0.37459
       H   -15.56382   -2.23215  -10.66092
       O   -16.30956   -2.74745  -10.83710
      H1   -16.45061   -3.16733   -9.98459
       H   -18.05290  -11.66402   -5.45536
       O   -17.23862  -11.49736   -5.03475
      H1   -17.54368  -11.10738   -4.17208
       H   -14.69042   -2.70874    2.49336
       O   -14.72659   -2.04795    1.71432
      H1   -14.82689   -1.22708    2.19209
       H   -14.98241   -9.40411   -9.54646
       O   -15.63758   -9.08148   -8.94687
      H1   -15.08732   -8.75072   -8.23534
       H   -12.49348  -10.80004   -8.16247
       O   -12.13037  -11.26112   -8.93908
      H1   -11.23448  -10.98524   -9.00471
       H   -16.23569   -9.40732    5.00925
       O   -15.86177   -8.91079    4.23618
      H1   -15.19036   -9.50978    3.94863
       H   -15.49368  -12.55814   -0.76460
       O   -15.37337  -12.29373   -1.68673
      H1   -16.22829  -12.61239   -2.05378
       H   -17.25371   -0.98063   -7.11119
       O   -16.58520   -1.50426   -6.74283
      H1   -15.85047   -0.90072   -6.71071
       H    -8.94703   -8.01220   -2.18486
       O    -9.48807   -8.76229   -2.48935
      H1    -9.44886   -8.71320   -3.45714
       H   -19.04897   -9.59954   -9.84135
       O   -18.95294  -10.45094  -10.30925
      H1   -19.28993  -11.09177   -9.65391
       H   -11.39683  -12.77438   -5.13186
       O   -11.16429  -13.15266   -6.01006
      H1   -11.98141  -13.18508   -6.51228
       H   -11.36827   -8.82933   -5.25260
       O   -10.36255   -8.73267   -5.28804
      H1   -10.03071   -9.53734   -5.72705
       H    -8.59686   -5.92391   -1.97421
       O    -7.99721   -6.66619   -1.92737
      H1    -7.57987   -6.55779   -1.06168
       H   -18.00651  -11.25425    1.01298
       O   -17.24854  -10.96898    1.56308
      H1   -17.70789  -11.05317    2.44021
       H   -10.64425  -11.14429   -0.54883
       O   -11.15816  -10.80781   -1.31837
      H1   -10.60939  -10.08122   -1.60692
       H   -17.78085   -3.82296    3.05987
       O   -17.90821   -4.31508    2.25510
      H1   -16.98840   -4.65202    2.09054
       H   -15.65068   -0.72707   -2.12456
       O   -15.40096    0.01187   -2.65859
      H1   -14.67279    0.32876   -2.13637
       H   -11.80802   -2.15054   -6.61387
       O   -11.74871   -1.33837   -7.07675
      H1   -10.87976   -0.97415   -6.70623
       H   -14.23585  -14.13295   -4.22992
       O   -13.87896  -14.64198   -3.47816
      H1   -14.57192  -14.59959   -2.83118
       H   -13.49663   -7.01198    3.16646
       O   -13.14541   -6.50602    2.43075
      H1   -13.94993   -6.27302    1.95091
       H   -17.66524   -7.86454   -0.67047
       O   -17.19515   -7.06038   -0.63857
      H1   -16.81672   -6.99790    0.23282
       H   -12.14714   -5.29156    3.20828
       O   -11.61812   -4.58547    3.63028
      H1   -12.05557   -4.55959    4.49032
       H   -19.13855   -8.02691    3.61883
       O   -18.39460   -8.24504    3.03161
      H1   -17.78016   -8.61237    3.73315
       H   -18.18702   -4.84623   -2.22028
       O   -19.03061   -5.06259   -1.78641
      H1   -18.75010   -5.35441   -0.85982
       H   -19.15319   -8.07610   -3.18391
       O   -19.20288   -7.98074   -2.22676
      H1   -19.10615   -7.01816   -2.07594
       H   -14.51598   -1.87014   -3.74419
       O   -14.55725   -2.70226   -4.28616
      H1   -15.15883   -3.18475   -3.72818
       H   -18.03807    0.60424   -4.55379
       O   -18.48269    1.03439   -5.28775
      H1   -18.04163    1.93684   -5.32124
       H   -13.23551   -6.76593   -6.76748
       O   -14.08057   -6.60988   -7.24719
      H1   -14.56500   -7.30968   -6.80387
       H   -11.51388   -4.03617   -2.21334
       O   -10.95358   -4.71974   -1.83346
      H1   -11.27413   -4.76717   -0.93868
       H   -12.81433  -10.75585    2.75673
       O   -13.50913  -10.27542    3.25318
      H1   -13.99080   -9.98106    2.43536
       H   -15.69117   -3.30547    4.63860
       O   -15.09899   -3.74877    3.99279
      H1   -15.50179   -4.66856    4.03885
       H   -16.11876   -9.63592   -3.13946
       O   -16.65231  -10.20385   -2.59710
      H1   -15.98649  -10.73093   -2.15804
       H   -13.65724  -11.49915   -6.01780
       O   -13.27816  -10.72567   -6.44563
      H1   -13.21623  -10.14976   -5.61612
       H   -20.04095  -11.38859   -6.93088
       O   -19.77511  -10.79399   -7.63343
      H1   -18.94902  -10.34060   -7.30596
       H   -15.89487   -5.07093   -2.81683
       O   -16.39905   -4.23338   -2.70822
      H1   -16.10161   -3.87318   -1.86631
       H   -11.07754   -0.92923   -1.10893
       O   -11.49116   -0.54465   -1.90950
      H1   -11.93009   -1.33640   -2.27317
       H   -14.66385   -4.89426   -9.92819
       O   -14.15508   -4.57239   -9.20659
      H1   -14.13372   -5.40296   -8.72484
       H   -14.63847  -12.98552    1.12060
       O   -15.62916  -13.06697    0.88522
      H1   -15.88480  -12.27003    1.33211
       H   -17.04001    0.49617   -2.50602
       O   -17.86617    1.00294   -2.36597
      H1   -18.63291    0.32368   -2.41623
       H   -16.58086   -8.46321   -6.04578
       O   -15.78818   -8.80629   -5.71453
      H1   -15.85896   -9.77831   -5.96509
       H   -15.47976  -12.41155   -5.51263
       O   -14.64071  -12.89325   -5.62269
      H1   -14.68773  -13.38746   -6.47367

