180
frame 5 | Written by MDAnalysis XYZWriter (release 2.4.3)
       H     4.08770    7.65121  -12.94245
       O     4.86812    8.18171  -12.73878
      H1     4.51843    9.01812  -12.36958
       H     1.77223    3.53338   -9.02787
       O     1.56890    4.52291   -8.97897
      H1     1.35673    4.76614   -9.84966
       H     2.73466   10.51963  -11.94575
       O     3.70987   10.45810  -11.88362
      H1     3.78308   10.67354  -10.91578
       H    -1.14978    0.45008  -14.29443
       O    -1.98815    0.20227  -13.86691
      H1    -2.71208    0.73225  -14.26921
       H     5.50543    7.63531   -4.96668
       O     4.87217    7.12048   -5.52664
      H1     4.19168    7.76318   -5.65484
       H     2.77997    1.30723   -9.16430
       O     2.24335    1.99240   -9.61541
      H1     1.75758    1.40906  -10.18121
       H    -3.60620    5.21235  -13.08732
       O    -3.55473    4.77547  -13.92209
      H1    -4.39477    5.08446  -14.26879
       H    -2.82037    8.11464  -12.05761
       O    -1.81376    8.05251  -11.92497
      H1    -1.60303    8.81084  -11.44889
       H    -0.34661    8.70739   -7.98803
       O    -0.60517    8.35157   -7.11597
      H1    -0.51124    9.18733   -6.57984
       H     3.81175    2.89408  -10.83809
       O     4.68378    3.02111  -11.26239
      H1     4.70400    3.94882  -11.43192
       H     2.89358    1.73774  -13.25784
       O     3.79400    1.33640  -13.19626
      H1     4.19041    1.99776  -12.60355
       H    -0.08517    5.40558  -11.75682
       O     0.79764    5.59266  -11.45473
      H1     1.22634    4.75274  -11.79062
       H    -3.10387    8.48975  -15.62969
       O    -3.94982    8.61419  -15.08784
      H1    -4.73786    8.51341  -15.65160
       H     1.27814    8.35741   -9.40669
       O     0.38754    8.56272   -9.73166
      H1     0.07341    7.69068   -9.95292
       H    -2.64797    4.31053  -10.48998
       O    -2.94301    3.41593  -10.75317
      H1    -3.35162    3.07033   -9.95657
       H     0.68279    3.04057  -13.16432
       O     1.61802    3.37087  -13.11853
      H1     1.59355    4.01469  -13.84901
       H    -1.26735    1.41325  -12.71574
       O    -0.84462    2.03377  -12.15139
      H1    -1.55862    2.50862  -11.73878
       H     5.76392    8.20149   -6.99921
       O     6.47658    8.37225   -7.60048
      H1     6.33461    7.68586   -8.29409
       H     1.89026   -0.93449  -10.25482
       O     1.01574   -0.57782  -10.28933
      H1     0.68892   -1.24992  -10.95762
       H     2.32060    3.65197  -17.95803
       O     1.87492    3.90840  -17.13876
      H1     1.08484    3.34535  -17.04291
       H     1.23797    9.21798  -12.23364
       O     0.98488   10.15979  -12.18137
      H1     0.65081   10.26617  -11.30202
       H     2.03247    0.87652  -15.88940
       O     2.84464    1.45277  -15.88991
      H1     3.15552    1.35788  -14.98636
       H     3.80375   -0.47809  -12.67478
       O     3.75520   -1.42693  -12.41297
      H1     3.96130   -1.76939  -13.33415
       H     4.95719    7.42251  -16.47476
       O     3.98164    7.16140  -16.46859
      H1     3.55390    7.81619  -15.93869
       H    -0.70328   12.39224   -9.99091
       O    -0.30573   12.08658   -9.17658
      H1     0.00549   12.87926   -8.65696
       H    -3.78293    2.41613  -15.71190
       O    -3.96183    2.11436  -14.80290
      H1    -3.84707    2.96419  -14.39083
       H     8.07711    5.71398  -14.28084
       O     7.34282    5.11283  -14.35341
      H1     6.93400    5.14765  -13.48588
       H     1.03750    8.45494  -15.51502
       O     1.93601    8.39627  -15.10300
      H1     2.08000    9.23795  -14.72773
       H     2.53927    4.66573  -15.63542
       O     2.57821    5.30311  -14.92807
      H1     3.08132    6.01883  -15.37535
       H    -4.55102    8.57286  -13.33703
       O    -4.46991    8.29126  -12.45017
      H1    -4.77188    9.09086  -11.92051
       H     7.07826    5.32490   -9.14427
       O     7.18990    6.19180   -9.55510
      H1     7.99036    6.20506  -10.07656
       H     5.74871    4.00447  -15.04542
       O     5.21637    3.58393  -15.69979
      H1     4.40470    3.67731  -15.24390
       H     5.33363    2.38430   -5.91557
       O     5.44355    3.34728   -5.99404
      H1     4.72360    3.64795   -6.54874
       H     2.97590    7.21801   -9.15477
       O     3.02201    8.11687   -9.44559
      H1     3.07072    8.02382  -10.43485
       H    -1.22667    1.20791   -8.02682
       O    -0.96735    0.34837   -8.39254
      H1    -0.40003    0.55709   -9.21018
       H    -4.78128    4.54458   -8.86558
       O    -5.58356    5.09971   -9.03351
      H1    -5.43618    5.40660   -9.94683
       H     6.77552    8.50295  -12.29666
       O     7.69905    8.37717  -11.99738
      H1     8.00030    9.31636  -11.90022
       H    -0.42321   10.65127  -15.40459
       O    -0.83088    9.94018  -14.87536
      H1    -0.45846   10.16373  -13.97504
       H    -3.86649   10.51441   -8.19513
       O    -3.91626    9.70164   -8.74977
      H1    -4.80412    9.44459   -8.64150
       H    -6.18507    5.76238  -12.12760
       O    -5.31920    5.90515  -11.74767
      H1    -5.16666    6.84439  -11.95931
       H    -0.19172    3.69327   -8.18095
       O    -1.01140    3.37525   -7.77352
      H1    -0.72812    3.34783   -6.83874
       H    -3.44139   10.80341  -13.15279
       O    -4.17528   11.09658  -13.70878
      H1    -4.13793   10.37435  -14.30256
       H     0.62872    6.39974   -4.86475
       O     0.98953    6.86655   -5.64840
      H1     0.15692    7.36470   -6.01033
       H    -0.57694    7.59733  -16.97808
       O    -1.24839    7.59844  -16.20197
      H1    -1.08069    8.52626  -15.88114
       H    -3.89862   11.66531  -11.09123
       O    -3.04889   11.19601  -11.16411
      H1    -3.12708   10.65848  -10.38151
       H     5.62396    6.75090  -12.22644
       O     5.99236    5.88261  -11.90397
      H1     6.30813    6.13083  -11.02173
       H    -2.16408    7.44197   -7.24394
       O    -2.98792    7.25368   -7.75153
      H1    -3.38223    8.13413   -7.80593
       H    -1.77013    6.66732  -10.87899
       O    -1.90748    5.95175  -10.21242
      H1    -2.23082    6.47339   -9.47063
       H    -2.49379    4.17719   -7.53327
       O    -3.40967    4.44982   -7.28098
      H1    -3.23504    5.43831   -7.39049
       H     1.67851    6.81902  -12.09646
       O     2.21467    7.60919  -12.35178
      H1     2.14824    7.67211  -13.36808
       H     4.32855   -0.67494   -9.67756
       O     3.64592   -0.25840   -9.08005
      H1     3.61036   -0.92162   -8.35108
       H     0.75326    5.63787  -14.72186
       O    -0.21034    5.40127  -14.65121
      H1    -0.64485    6.18057  -15.11799
       H    -2.74773    0.25010   -8.65529
       O    -3.68378    0.07864   -8.41334
      H1    -4.12324    0.21027   -9.30935
       H    -0.64607    3.52867  -15.43917
       O    -0.43724    2.85947  -16.06404
      H1    -1.20571    2.91119  -16.71077
       H     5.84657    3.74013   -8.17218
       O     6.35543    3.65511   -8.95303
      H1     5.65468    3.59849   -9.64195
       H    -4.96008    3.22387  -11.48682
       O    -5.73800    2.69637  -11.67560
      H1    -6.05878    2.43446  -10.83946
       H     0.13487    1.18912  -15.30217
       O     0.22179    0.21758  -15.32031
      H1    -0.56180   -0.05709  -15.80611
       H    -2.57219    4.88013  -15.47443
       O    -2.48673    4.70150  -16.46805
      H1    -2.07247    5.56146  -16.66501
       H     2.65207    9.07435   -7.14832
       O     2.70394    8.81053   -6.23768
      H1     2.02250    8.10523   -6.20642
       H     4.30924    6.01210   -6.69341
       O     3.91996    5.33614   -7.25937
      H1     2.98020    5.58600   -7.12309

