180
frame 4 | Written by MDAnalysis XYZWriter (release 2.4.3)
       H    13.61514   -0.52618   13.65866
       O    14.54026   -0.82356   13.53129
      H1    14.97229   -0.08573   13.96391
       H     9.13583   -8.21124   10.40590
       O     9.51785   -7.75770    9.63231
      H1     9.86018   -6.92966   10.03441
       H    12.25051    1.76325   11.11019
       O    12.21757    1.42857   10.22100
      H1    12.24821    0.48266   10.28921
       H     9.61077   -2.11768   12.75747
       O    10.54692   -2.12908   12.89251
      H1    10.80718   -1.27219   13.28091
       H     8.22161   -2.57425   15.61085
       O     7.77875   -3.41662   15.71046
      H1     8.49725   -3.95977   15.92430
       H    11.45035   -3.16637   14.35275
       O    11.90561   -3.09271   15.19844
      H1    11.76828   -4.05448   15.41705
       H    11.96062   -9.87575    9.52016
       O    11.65977  -10.20631    8.65383
      H1    10.72016  -10.53030    8.85688
       H    13.09461   -4.93169    4.15154
       O    12.42405   -5.33080    4.69692
      H1    12.37030   -6.19780    4.26594
       H    13.94206  -11.77627   12.90480
       O    14.19373  -12.04917   13.75783
      H1    13.53917  -12.68948   14.00213
       H     6.19491   -7.48929    9.53777
       O     5.85770   -8.12869   10.19649
      H1     5.72901   -7.61066   11.01041
       H     6.27168   -6.56223   16.71416
       O     7.03014   -7.10334   16.54784
      H1     6.66750   -7.99393   16.61728
       H     8.71215   -6.08138   16.76643
       O     9.43189   -5.41173   16.99030
      H1     9.26327   -5.10341   17.86924
       H    11.35672   -1.54649   11.25597
       O    12.02504   -1.44080   10.58146
      H1    12.50247   -2.24074   10.77240
       H    12.37265   -6.87260   10.21364
       O    11.94601   -7.02682   11.14740
      H1    11.68278   -6.12790   11.46670
       H    12.92125  -11.38732    8.25519
       O    13.78924  -11.80604    8.23005
      H1    14.40456  -11.03471    8.13452
       H    14.22141   -3.93728    8.74673
       O    14.33330   -4.54762    9.46512
      H1    14.12842   -4.03889   10.27520
       H    16.20290   -4.83016   12.65466
       O    16.09729   -5.09741   11.73172
      H1    16.16865   -4.17724   11.41352
       H     9.40770   -7.81278    5.77854
       O     9.81060   -8.70173    5.71514
      H1    10.78142   -8.57731    5.58508
       H    16.69007   -6.66206   14.17481
       O    17.01425   -7.55552   13.92651
      H1    16.70041   -7.71313   13.02121
       H     8.91125   -9.99623   11.32691
       O     8.39396   -9.14817   11.62894
      H1     7.49204   -9.35113   11.28913
       H     9.95866  -10.27427   15.89668
       O     9.17663   -9.96373   15.42427
      H1     8.51862  -10.35702   16.06906
       H    13.56136   -2.97490   12.85319
       O    13.50853   -3.52177   12.02433
      H1    12.91920   -4.21921   12.31938
       H    16.44665   -7.96331    8.91460
       O    17.39571   -8.11533    8.64540
      H1    17.33101   -7.71750    7.77789
       H    11.86804   -0.55128   15.01986
       O    12.07188   -0.28951   14.10741
      H1    11.73925    0.58713   13.94372
       H    16.47104   -4.37717    8.72119
       O    17.20243   -3.91626    8.23800
      H1    17.93290   -4.60310    8.21326
       H    12.34991   -8.95750    6.83105
       O    12.48412   -9.10730    5.88230
      H1    13.17728   -8.44001    5.76412
       H     8.11755  -11.55646    6.99150
       O     8.72561  -11.16106    7.62464
      H1     9.04719  -10.42027    7.05464
       H    15.56520  -11.00757   13.80514
       O    16.16140  -10.32357   14.11681
      H1    16.50736   -9.97319   13.25343
       H    12.46457   -8.75263   11.58381
       O    12.79030   -9.56105   12.04325
      H1    13.51740   -9.28462   12.63711
       H    10.94059    0.83221    9.02631
       O    10.08864    0.72466    8.53571
      H1    10.06428   -0.19419    8.21227
       H    12.54666   -5.03008   17.18336
       O    12.26729   -5.61766   16.45090
      H1    11.33557   -5.78910   16.61819
       H    15.68153   -3.99043   14.50876
       O    16.32577   -4.72410   14.30227
      H1    17.04167   -4.04685   14.14625
       H     8.80464  -11.15630   13.74075
       O     8.45927  -11.83013   13.12118
      H1     7.55228  -11.49741   13.07850
       H     7.65244   -5.72739    8.56936
       O     7.44400   -6.64603    8.36411
      H1     8.04284   -7.19573    8.82542
       H     9.41194   -2.23062    6.53682
       O     9.06808   -3.08507    6.94103
      H1     9.03097   -3.58258    6.09528
       H     9.50800   -7.09376   13.77136
       O     8.87893   -6.75818   13.09024
      H1     8.85318   -7.54268   12.51568
       H    14.34510   -7.43690    8.99229
       O    15.01668   -7.45674    9.72711
      H1    14.97350   -6.56253   10.05661
       H    13.57574   -3.02987   15.35520
       O    14.55074   -2.81861   15.29158
      H1    14.65345   -2.04648   14.68211
       H     7.27595   -3.57494    9.18196
       O     8.10693   -4.07036    9.02032
      H1     8.46059   -3.63188    8.18344
       H    17.56879   -5.83178   10.96718
       O    18.32562   -6.39038   10.70075
      H1    17.91598   -6.90770    9.97021
       H    17.05495  -10.70756   11.67153
       O    16.77967   -9.79790   11.73571
      H1    16.20819   -9.67696   10.96727
       H    12.17981   -6.75822    7.78948
       O    12.54628   -7.50699    8.27928
      H1    11.70911   -7.98016    8.42078
       H    12.24620   -7.44556   16.88858
       O    12.56813   -8.39036   17.03007
      H1    12.94176   -8.49686   16.13764
       H     8.95260  -11.66016   11.38902
       O     9.51118  -11.47929   10.57885
      H1     8.92041  -11.81190    9.92319
       H    13.71244  -11.80742    9.96974
       O    13.66840  -11.76622   10.92648
      H1    13.23088  -10.82712   11.05684
       H    14.59549   -9.26396   14.86421
       O    13.99572   -8.51819   14.77082
      H1    14.59585   -7.87235   14.39639
       H    11.68041   -9.76075   17.55376
       O    11.10390  -10.50235   17.79921
      H1    11.69343  -11.09894   18.23369
       H     7.10277   -3.49383   13.94756
       O     6.35794   -3.40036   13.38335
      H1     6.61726   -3.90529   12.61523
       H    13.67750   -1.63703    4.87516
       O    13.00801   -2.22535    5.36363
      H1    13.39788   -2.27181    6.29786
       H    11.37755   -7.99430   14.72297
       O    10.68491   -7.38854   15.04938
      H1     9.90420   -8.00017   15.27705
       H    16.96125   -2.49212   12.50331
       O    16.30672   -2.29435   11.75452
      H1    15.61496   -1.84814   12.28573
       H    10.71679   -4.30182    7.59724
       O    11.41266   -4.98014    7.50674
      H1    11.85702   -4.55260    6.68252
       H     8.38266   -6.44036    6.96101
       O     8.96708   -6.17637    6.27226
      H1     9.62344   -5.75989    6.84626
       H    10.43669   -5.48653   12.89417
       O    11.21558   -4.93853   12.67485
      H1    10.81977   -4.10574   12.35158
       H    15.01561   -6.57322   17.30329
       O    15.64700   -7.04133   17.94664
      H1    15.21708   -7.90615   17.80005
       H     4.86131   -2.97438   10.54732
       O     5.70466   -2.99787   10.13179
      H1     5.94452   -2.09831   10.00194
       H    15.61051   -9.79168    6.49415
       O    15.00419   -9.54183    7.18503
      H1    14.13807   -9.82683    6.81853
       H    11.19122   -4.20274    4.66730
       O    10.49583   -3.53670    4.63342
      H1    10.94067   -2.85197    4.19405
       H     6.19835   -6.49909   13.45254
       O     5.43634   -6.39124   12.85609
      H1     4.87682   -6.93271   13.41913
       H    14.95411   -2.07983    7.46613
       O    14.05367   -2.35534    7.74732
      H1    13.64215   -1.49670    7.83015

