180
frame 10 | Written by MDAnalysis XYZWriter (release 2.4.3)
       H    -5.48951   -7.10847  -10.37208
       O    -5.71558   -6.18729  -10.15021
      H1    -5.85008   -6.12485   -9.20127
       H    -5.89552    2.66282   -5.60363
       O    -5.81213    3.56828   -5.32758
      H1    -5.23637    4.03873   -5.95225
       H   -10.87591   -3.57138   -3.38847
       O   -11.33230   -3.48454   -2.54691
      H1   -12.21951   -3.19161   -2.92313
       H    -7.00068    0.43726   -8.48616
       O    -7.08011   -0.27770   -7.83970
      H1    -8.06897   -0.31405   -7.78853
       H    -6.74056   -7.36692   -6.83948
       O    -7.12425   -8.09355   -6.31274
      H1    -6.86769   -8.96165   -6.66512
       H    -9.47533   -3.72029   -4.98056
       O   -10.46255   -3.69544   -5.09131
      H1   -10.62153   -4.61221   -5.33632
       H    -6.74652   -2.14607  -10.59372
       O    -7.65456   -1.81147  -10.66658
      H1    -7.76570   -2.12034   -9.74794
       H    -9.96396   -2.42574    1.20653
       O    -9.50997   -1.67787    0.79227
      H1    -8.69641   -2.12792    0.62402
       H    -2.94472   -0.47727   -3.74705
       O    -2.29596   -0.82489   -3.11527
      H1    -1.63163   -0.10566   -3.20728
       H    -9.23521   -5.73754   -8.96378
       O    -9.08138   -4.86914   -9.32570
      H1    -9.97237   -4.53067   -9.43060
       H   -13.78884   -3.47019   -9.59200
       O   -13.08175   -2.84831   -9.76732
      H1   -12.55061   -2.79376   -8.97637
       H    -4.91632   -5.44460   -1.60074
       O    -5.13519   -5.45429   -0.67825
      H1    -4.50551   -5.99509   -0.25807
       H    -4.55973   -9.43710   -8.63515
       O    -3.95157  -10.19877   -8.35038
      H1    -3.90430  -10.01475   -7.39878
       H   -11.52977   -6.73069  -10.96355
       O   -11.54022   -5.84437  -10.62173
      H1   -12.40437   -5.83079  -10.24961
       H    -9.42941   -5.84411  -12.57343
       O    -9.25460   -4.94922  -12.22978
      H1    -9.05782   -5.17012  -11.34456
       H   -10.40448   -6.27960   -6.59515
       O   -11.16376   -6.19463   -5.96392
      H1   -11.04154   -6.99619   -5.51053
       H    -7.44406   -5.16016  -12.52577
       O    -6.54351   -5.20239  -12.83684
      H1    -6.04815   -5.59279  -12.13379
       H   -14.22619   -1.36200   -5.44363
       O   -13.97453   -0.67182   -6.09612
      H1   -13.34412   -1.19686   -6.64129
       H   -11.98492   -3.06248  -11.49015
       O   -11.27754   -2.94539  -12.10309
      H1   -10.73341   -3.73416  -12.04066
       H    -2.27216   -5.88607  -10.24003
       O    -2.50756   -6.40943   -9.44877
      H1    -2.94969   -5.76451   -8.92333
       H    -7.28064   -6.51457    0.01858
       O    -7.68255   -7.00107    0.72348
      H1    -7.65703   -6.35354    1.47264
       H    -8.76606   -0.27775  -10.98401
       O    -9.40095    0.45464  -10.88826
      H1   -10.11803    0.11442  -11.45906
       H   -10.01726   -1.89757  -12.77128
       O    -9.10135   -1.84591  -13.12309
      H1    -8.50884   -2.12389  -12.37740
       H    -6.82820   -3.61328    1.58481
       O    -6.82929   -2.77469    1.04715
      H1    -6.17929   -3.05008    0.31341
       H    -8.23684  -10.58448   -2.89163
       O    -7.85882  -10.22559   -3.69438
      H1    -8.11485   -9.31238   -3.88615
       H    -9.39482   -0.71849   -3.29264
       O    -8.83451   -0.82764   -4.12041
      H1    -7.96572   -0.78679   -3.62047
       H    -2.50318   -3.24319   -3.36798
       O    -2.55306   -4.07678   -3.73742
      H1    -3.49263   -4.12805   -4.07350
       H    -6.19934    0.17876   -2.48939
       O    -6.31077   -0.73058   -2.81508
      H1    -5.78702   -1.22611   -2.15816
       H   -10.09364   -8.21402   -1.72651
       O   -10.55721   -8.99431   -2.04022
      H1   -10.48011   -8.66041   -2.98479
       H    -1.20594   -1.79089   -9.97986
       O    -1.66239   -1.73275   -9.10978
      H1    -1.80064   -0.80544   -9.09968
       H   -11.57007   -8.86144   -4.76905
       O   -10.58670   -8.68327   -4.69862
      H1   -10.35156   -9.39610   -5.35490
       H    -9.39385   -0.54083   -5.81960
       O    -9.81071   -0.39915   -6.69496
      H1    -9.98617    0.55307   -6.63626
       H    -6.40487   -3.23951   -8.86201
       O    -7.11683   -3.29351   -8.15907
      H1    -7.80767   -3.84063   -8.63724
       H   -10.01392   -6.23383   -1.19005
       O    -9.24221   -6.71965   -1.58777
      H1    -8.81614   -7.04605   -0.79696
       H   -11.51034   -2.89545   -6.28641
       O   -11.69257   -2.37679   -7.10935
      H1   -11.10729   -1.61632   -6.96494
       H    -4.91283   -1.44294   -4.25984
       O    -4.62456   -0.80261   -4.94465
      H1    -5.39845   -0.26905   -4.99210
       H    -4.62997   -3.49316  -10.08469
       O    -4.93823   -2.89728   -9.35767
      H1    -4.26128   -2.21053   -9.51270
       H    -9.17149   -8.68046  -10.78147
       O    -9.92381   -8.94945  -10.17560
      H1    -9.50149   -9.75596   -9.93397
       H   -10.47447    2.71462   -8.65938
       O   -10.23668    2.94765   -9.56640
      H1    -9.95553    2.04372   -9.87439
       H    -6.47591   -5.15266   -7.23034
       O    -5.95386   -5.93113   -7.38873
      H1    -5.05737   -5.64889   -7.12259
       H    -3.88088   -2.46232   -0.86578
       O    -4.80453   -2.77364   -0.99660
      H1    -4.65709   -3.73267   -0.91106
       H    -9.25084   -8.00890   -8.62690
       O    -9.31594   -7.22454   -8.01133
      H1    -8.64479   -7.61353   -7.36729
       H    -1.67799   -3.81725   -5.36681
       O    -1.47256   -4.24935   -6.25228
      H1    -0.80620   -3.61202   -6.58398
       H    -2.29144   -6.04920   -5.68898
       O    -2.69455   -6.89980   -5.28845
      H1    -3.41631   -6.66868   -4.69032
       H    -0.57459   -6.62758   -3.24848
       O    -1.11859   -6.21936   -2.57748
      H1    -1.58276   -5.47933   -2.99323
       H   -10.05199    3.39036   -6.48225
       O   -10.37326    2.52152   -6.86973
      H1   -11.31841    2.73406   -6.72004
       H    -4.10280   -9.31702   -4.62441
       O    -3.35345   -9.58128   -5.23275
      H1    -2.96283   -8.72498   -5.47738
       H    -8.02629    2.64640   -9.12500
       O    -7.36189    2.05731   -9.54823
      H1    -7.89627    1.65497  -10.22138
       H   -12.29513   -6.78092   -6.99366
       O   -12.96328   -7.27971   -7.48339
      H1   -13.54717   -7.58387   -6.78845
       H   -12.02316   -4.58390   -1.23867
       O   -12.38226   -5.29130   -0.68876
      H1   -11.98108   -5.08865    0.16629
       H    -4.63675   -8.45060  -11.43517
       O    -4.73641   -8.61947  -10.44875
      H1    -3.94676   -8.14393  -10.09620
       H    -8.10924   -2.72909   -5.18997
       O    -7.54799   -3.53652   -5.41005
      H1    -7.58837   -3.42088   -6.37621
       H    -4.70362   -7.90684   -3.09336
       O    -4.47839   -6.97489   -3.05823
      H1    -3.59254   -6.85000   -2.72522
       H    -3.47902    0.94829   -7.61534
       O    -3.77489    0.16042   -8.20202
      H1    -4.50132   -0.23297   -7.71967
       H    -4.50750   -2.67839  -12.42845
       O    -5.46170   -2.65978  -12.29218
      H1    -5.85050   -3.56424  -12.44140
       H    -4.10970   -3.85796   -8.12448
       O    -3.61617   -4.60375   -7.72846
      H1    -2.97888   -4.18429   -7.08279
       H    -9.66824   -1.43552   -1.01128
       O   -10.15038   -1.08641   -1.74667
      H1   -10.68411   -1.83175   -2.03235
       H   -14.56376   -5.98756   -9.67560
       O   -14.03467   -5.44974   -9.06075
      H1   -13.67177   -6.13956   -8.42897
       H    -7.12933    0.50383   -6.41171
       O    -7.21521    1.05510   -5.59401
      H1    -7.87736    0.52650   -5.17952
       H    -6.11477   -4.41377   -4.59001
       O    -5.25681   -4.61569   -4.13874
      H1    -5.36521   -5.58823   -4.08648

