180
frame 10 | Written by MDAnalysis XYZWriter (release 2.4.3)
       H    17.24634   18.04316   -2.29697
       O    16.64111   18.83239   -2.31937
      H1    16.58850   19.23015   -3.14986
       H     9.14380   11.18360   -9.70374
       O     9.10370   11.84428  -10.37210
      H1     8.94172   11.35137  -11.15835
       H     9.76934   13.37976   -6.22581
       O    10.20782   14.18422   -6.11803
      H1     9.56185   14.66537   -5.52136
       H    11.91901   14.73926   -0.87126
       O    11.16510   14.76665   -0.29753
      H1    10.69122   15.57202   -0.61679
       H    13.91241   17.79726   -5.71289
       O    14.71599   18.35786   -5.48011
      H1    15.26639   17.81047   -4.92809
       H    14.96619   18.62173   -7.40872
       O    15.73392   18.44474   -7.91961
      H1    15.91379   17.50262   -7.69072
       H     8.47231   16.18270    0.79866
       O     8.55996   16.45526   -0.18550
      H1     7.66499   16.87388   -0.25378
       H     9.67116   11.58315    0.84970
       O     8.99399   11.85685    0.29064
      H1     9.11441   12.78282    0.07685
       H     2.52761   19.20394   -6.05101
       O     2.85226   19.15688   -6.97983
      H1     3.71215   18.76629   -6.77792
       H     2.57440   18.32094   -4.02056
       O     1.71290   18.56627   -4.42371
      H1     1.65647   17.80947   -4.98350
       H     6.71229   18.92823    1.33377
       O     5.99491   18.52386    1.79743
      H1     5.50566   18.09845    1.03356
       H     9.68449   18.17920  -11.28986
       O     9.79037   19.11860  -11.52789
      H1    10.22989   19.10441  -12.41270
       H    13.82659   15.12845   -2.63169
       O    13.37757   14.30783   -2.43071
      H1    12.96881   14.09402   -3.29403
       H    11.38424   19.57167  -10.69901
       O    12.27019   19.76549  -10.37445
      H1    12.61055   18.89224  -10.09055
       H    13.88300   19.09347    1.71138
       O    13.42843   18.28418    1.45152
      H1    12.52886   18.48902    1.72051
       H    10.62090   11.53512   -2.55124
       O    11.49676   11.76694   -2.87991
      H1    12.04725   11.80965   -2.11238
       H    12.83844   12.70680   -8.85026
       O    12.09024   12.77824   -8.21557
      H1    11.63099   13.53819   -8.62478
       H    10.46744   16.48385   -8.31947
       O    10.72988   15.55592   -8.35621
      H1    10.34580   15.18208   -7.46456
       H     8.45763   14.21949   -2.43661
       O     8.02793   15.08367   -2.41782
      H1     8.36543   15.56860   -1.64750
       H    14.22117   12.61770   -2.53440
       O    15.08050   12.13322   -2.66079
      H1    15.01525   11.66759   -3.55313
       H    19.16303   15.81982   -5.66275
       O    18.90715   16.38701   -4.93586
      H1    18.91080   17.25690   -5.37506
       H     8.60912   19.25649   -3.01512
       O     8.32503   18.44602   -2.57054
      H1     8.44284   17.80328   -3.25969
       H    11.53199   13.47914   -5.20005
       O    12.39080   13.19726   -4.88288
      H1    12.27237   12.45864   -4.20224
       H    16.96022   13.43543   -5.02281
       O    16.99892   13.53360   -4.10126
      H1    16.29497   13.04855   -3.66532
       H     4.43336   15.97634   -6.19398
       O     3.53340   15.72704   -5.88075
      H1     3.01721   15.51279   -6.69485
       H    16.86539   12.82640   -7.20626
       O    17.58711   13.38372   -6.93918
      H1    17.22851   14.32607   -7.10296
       H     8.76653   11.61164   -1.39616
       O     8.78818   12.07535   -2.27812
      H1     8.40917   11.40028   -2.82929
       H     9.09209   10.34349   -5.21032
       O     8.52582   10.09994   -4.47676
      H1     8.97927    9.28638   -4.17910
       H    18.12844   15.90655   -3.22901
       O    18.02237   16.32483   -2.34294
      H1    18.27194   15.53426   -1.78323
       H    17.44460   17.10867   -9.61637
       O    17.32684   16.36311  -10.22818
      H1    16.73392   16.66629  -10.88609
       H    14.22749   18.19581   -1.67566
       O    13.39903   18.59493   -1.40512
      H1    13.27468   18.38269   -0.47672
       H     4.34658   14.76210   -3.08779
       O     5.05625   15.04808   -2.43552
      H1     5.64856   14.31310   -2.39188
       H    11.10424   14.43534    2.75736
       O    11.85514   13.86204    2.40519
      H1    11.76042   14.06066    1.43461
       H    10.65166   12.15983  -11.26731
       O    11.54033   12.41966  -11.58052
      H1    11.56648   13.38934  -11.60260
       H     9.79828   18.49232   -6.94998
       O    10.21815   18.88808   -6.17327
      H1    10.72767   18.24615   -5.71455
       H     7.65003   15.74232  -10.39017
       O     7.38370   15.64392   -9.42833
      H1     7.16451   14.68614   -9.47207
       H    10.89244   18.48826  -14.56524
       O    10.85117   19.33068  -14.04358
      H1    11.64314   19.83573  -14.24319
       H    10.73875   16.00346  -11.82900
       O    11.41134   15.26706  -11.97487
      H1    11.56873   15.41415  -12.93249
       H     8.13823   16.51447  -12.54437
       O     8.58068   16.43229  -11.67574
      H1     8.83438   15.48007  -11.74174
       H    17.41318   16.10729   -6.28832
       O    16.75748   15.94228   -6.97275
      H1    16.08724   15.50597   -6.37212
       H     4.88253   18.89140  -10.34788
       O     5.01719   19.55464   -9.61647
      H1     5.89715   19.94061   -9.93964
       H     9.87041   12.38755   -8.24920
       O     9.32422   12.04222   -7.46680
      H1     8.41019   12.01250   -7.84060
       H     6.55708   14.65150    0.43650
       O     6.73493   13.80264    0.00118
      H1     7.20144   14.14877   -0.80509
       H    14.04510   13.92443   -5.73904
       O    14.60842   14.71750   -5.69591
      H1    14.06672   15.25824   -6.24527
       H     8.62498   17.29080   -9.01882
       O     9.37487   17.86168   -8.75397
      H1     8.84193   18.72654   -8.82679
       H    16.02941   16.01052   -3.06351
       O    15.22498   16.17777   -3.49423
      H1    15.13542   15.44022   -4.10059
       H    12.33150   15.92777   -7.64606
       O    12.97560   16.54626   -7.33867
      H1    13.40814   16.66332   -8.20397
       H    14.89875   12.25741  -10.64368
       O    14.62954   12.02789   -9.70744
      H1    14.48992   11.07866   -9.66352
       H    11.89067    9.54589   -6.66061
       O    11.48652   10.20653   -6.10424
      H1    11.12398   10.79100   -6.82002
       H    13.52383   11.55240   -5.37573
       O    14.30358   11.09659   -5.05734
      H1    14.81188   11.16723   -5.88361
       H     2.34422   14.47620   -3.35278
       O     3.12465   14.15130   -3.89518
      H1     3.34070   14.85724   -4.55544
       H    11.93322   17.71526   -1.90802
       O    11.05761   17.50782   -2.21717
      H1    10.47291   18.20814   -1.89408
       H    18.35836   19.45356   -6.87655
       O    19.03785   18.94421   -6.42935
      H1    19.73436   18.91307   -7.08434
       H     4.80079   17.26382   -8.89969
       O     4.89152   16.30329   -8.83776
      H1     5.75101   16.16149   -9.23726
       H     3.58781   17.68464   -1.63535
       O     3.86787   18.15245   -2.47029
      H1     4.06091   19.06447   -2.19937
       H     4.97593   19.39877   -5.27330
       O     5.42112   18.55927   -5.01471
      H1     4.95053   18.35434   -4.17832
       H     8.41557   15.92829   -3.89209
       O     8.96852   16.48427   -4.46714
      H1     9.82725   16.66578   -3.97099
       H    14.39602   17.24153  -10.65056
       O    13.85595   17.45245   -9.86267
      H1    14.57023   17.91933   -9.40659
       H     6.67248   17.89733   -1.60021
       O     6.15023   17.49326   -0.88281
      H1     5.67140   16.86968   -1.51869
       H    10.64906   17.86502    1.98098
       O    10.68314   18.71882    1.46691
      H1    10.72952   19.39870    2.20046

