180
frame 10 | Written by MDAnalysis XYZWriter (release 2.4.3)
       H    12.66752    0.61052   17.60241
       O    13.32451    0.35864   16.93642
      H1    13.99046   -0.11554   17.41949
       H     9.76053   -0.13322   15.55874
       O    10.60302   -0.25911   15.10521
      H1    10.93020    0.65300   15.09834
       H     9.14389   -8.87058    8.55533
       O     9.21289   -8.01370    8.13288
      H1     8.71392   -7.61724    8.91712
       H    13.67310    1.52259   11.93659
       O    13.15821    1.13699   11.22369
      H1    13.14147    0.21208   11.46526
       H     9.45401   -0.21456   11.91639
       O     8.96659    0.40293   12.55461
      H1     9.63671    0.55894   13.24444
       H     2.31366   -2.90350   15.09534
       O     3.13900   -2.98368   15.51243
      H1     2.89435   -2.81056   16.43612
       H     5.01603   -0.75277   18.44977
       O     4.61999   -1.33369   19.10341
      H1     3.90434   -0.76579   19.51266
       H    11.73866   -1.90475   15.53070
       O    12.41929   -2.24063   16.13397
      H1    12.79525   -1.44245   16.54223
       H    10.18268   -3.75023   14.26224
       O    10.01451   -4.50969   14.87393
      H1    10.24444   -4.14012   15.73337
       H    11.62314   -5.52500   14.02678
       O    12.32780   -6.20520   13.91038
      H1    12.00065   -6.88482   14.48095
       H     6.47288   -0.58467   10.49996
       O     7.22947   -1.18372   10.48434
      H1     7.32910   -1.24255   11.45539
       H     8.67246   -2.07610   19.21127
       O     9.04935   -2.92285   19.41863
      H1     9.53598   -3.08417   18.58092
       H    12.59091   -0.84739    7.91190
       O    11.82912   -0.23959    8.15986
      H1    12.22658    0.61368    8.21379
       H     7.77476   -1.92400   13.74405
       O     8.13665   -2.48678   13.06353
      H1     7.63061   -3.29259   13.09527
       H     6.31136   -5.70740   16.92018
       O     5.70277   -6.46121   17.27479
      H1     4.98331   -6.33149   16.60447
       H     7.13380    0.42175   13.04253
       O     6.51680    0.74213   13.73125
      H1     6.35282    1.67432   13.44688
       H     4.45041   -8.64410   12.33736
       O     5.22969   -9.19958   12.30822
      H1     5.94084   -8.52122   12.40851
       H     6.30819   -7.85148   16.42584
       O     6.60132   -8.54911   15.78209
      H1     6.42480   -9.42397   16.11889
       H     8.25684   -7.88816   16.70720
       O     9.20224   -7.86228   16.75768
      H1     9.31590   -7.73508   17.72510
       H     8.09515   -4.91569   15.89559
       O     7.35266   -4.54355   16.44217
      H1     7.81783   -4.53230   17.30265
       H    12.65654   -2.15251   12.58590
       O    13.40481   -1.71152   12.14209
      H1    14.05308   -1.57375   12.86689
       H    10.22421   -5.76801   11.35344
       O     9.51178   -6.30874   11.67801
      H1     9.94913   -7.18728   11.63790
       H    11.98895   -4.00713   10.04609
       O    11.09026   -4.33367   10.13481
      H1    10.58125   -3.52027   10.12585
       H    15.56137   -7.42076   14.01764
       O    15.76805   -7.65357   13.10340
      H1    16.31622   -6.86572   12.87024
       H     8.00485  -10.76152   12.64988
       O     7.70632  -10.40302   11.84501
      H1     6.78731  -10.25656   11.97628
       H    13.72349   -5.14423   13.10281
       O    14.50272   -4.64062   12.85315
      H1    14.30089   -4.23250   12.02636
       H    14.69583   -1.99722   15.08936
       O    15.03146   -1.32628   14.49174
      H1    14.59406   -0.56844   14.83596
       H    16.43931   -5.05293   11.45021
       O    16.67269   -4.89889   10.53833
      H1    16.88537   -5.78539   10.22956
       H    14.25977    2.23283   14.65558
       O    13.83167    1.34161   14.63625
      H1    13.73646    1.23106   15.59553
       H     6.09573    0.95405   17.65619
       O     5.46403    1.46778   18.22608
      H1     5.98431    1.74852   19.01023
       H    11.32471   -3.37644   17.15228
       O    10.73229   -4.04826   17.54150
      H1    11.32328   -4.71262   17.87461
       H    13.92302   -8.46603   10.30350
       O    14.53478   -9.12975   10.69381
      H1    14.82436   -8.59753   11.41825
       H    11.20297    2.26735   11.58752
       O    10.45064    2.43339   10.99455
      H1     9.70222    2.21557   11.60440
       H    15.05234   -1.66296   19.31593
       O    15.01895   -1.15464   18.51078
      H1    15.88748   -1.21579   18.08311
       H    10.73826   -8.25156   15.55929
       O    11.67272   -8.36064   15.67040
      H1    11.84149   -9.08137   15.00169
       H     4.84669    0.11470   14.58156
       O     3.97059   -0.24678   14.50486
      H1     4.09358   -1.17546   14.81213
       H     7.79059   -6.07375    9.18088
       O     7.58182   -6.74422    9.86252
      H1     8.08075   -6.55854   10.67603
       H    10.35575   -1.78856    7.68517
       O     9.65756   -2.42193    7.51345
      H1     8.99256   -1.83984    7.10103
       H    11.05475   -9.57841   12.07716
       O    10.43865   -9.42352   11.29823
      H1     9.63595   -9.88448   11.48177
       H    12.63380   -7.21722    8.35671
       O    12.73564   -7.35019    9.33263
      H1    12.12176   -6.77177    9.80336
       H    11.20250    3.08781   15.62990
       O    11.35656    2.42648   14.96395
      H1    12.29119    2.30194   14.94421
       H     7.10219   -5.78231   19.59355
       O     7.93754   -5.51739   19.16175
      H1     8.12170   -4.64186   19.57806
       H     7.90313   -4.27732    7.57513
       O     8.11042   -5.19762    7.25246
      H1     9.06186   -5.07601    7.14102
       H     7.42812    0.49372   15.43289
       O     7.84380    0.10117   16.19253
      H1     7.47832   -0.80597   16.18376
       H     5.44007   -2.39411   16.59440
       O     6.14535   -2.13614   15.95022
      H1     6.66868   -2.94019   15.97687
       H    12.11078   -9.48800   17.13121
       O    12.22130  -10.09738   17.86229
      H1    12.98310  -10.65185   17.47369
       H    14.49110   -6.24042   15.48058
       O    15.15685   -6.92834   15.62841
      H1    14.96865   -7.36513   16.47461
       H     6.62108   -5.38863   13.31471
       O     6.21161   -4.51476   13.26946
      H1     5.72067   -4.52082   12.44768
       H    14.53709   -1.82036    6.83181
       O    13.77575   -2.18240    7.27707
      H1    14.08642   -2.52971    8.13033
       H    12.69090  -10.47570   13.62352
       O    11.82523  -10.12883   13.53825
      H1    11.25816  -10.90653   13.64395
       H    18.11614   -2.26318   13.25550
       O    17.28620   -1.97048   12.91577
      H1    16.58156   -2.50269   13.28003
       H     3.25407   -5.92177   18.89642
       O     3.91310   -5.20188   19.02497
      H1     4.60731   -5.55726   18.42199
       H     9.13987   -1.11944   10.12488
       O    10.02502   -1.30524   10.56801
      H1    10.60662   -1.09988    9.81677
       H     3.79354   -4.59291   15.15438
       O     4.09787   -5.52376   15.08972
      H1     4.94230   -5.28972   14.61578
       H    10.57718   -1.54501   13.86223
       O    10.90939   -2.30238   13.33544
      H1    10.20192   -2.53645   12.70749
       H     6.11379   -3.89486    9.84491
       O     6.72702   -3.53434    9.21227
      H1     7.14245   -2.79966    9.78955
       H     6.00202   -6.14963   10.14432
       O     5.24792   -5.59036   10.41748
      H1     4.81499   -6.25933   10.96429
       H     8.20965   -7.09504   13.56435
       O     7.23560   -7.07173   13.42926
      H1     7.02770   -7.59318   14.27266
       H     9.71894    1.07131    8.20539
       O     9.12854    1.31086    8.91299
      H1     9.78936    1.73862    9.49727
       H    14.98324   -3.96512    9.76131
       O    14.20510   -3.32722    9.81870
      H1    14.64158   -2.54130   10.17627

