180
frame 21 | Written by MDAnalysis XYZWriter (release 2.4.3)
       H     2.06907  -12.72089   19.57525
       O     2.37916  -11.91273   19.23042
      H1     2.99728  -11.66179   19.98961
       H    -2.24446  -13.37824   18.90755
       O    -2.16488  -12.74023   19.70083
      H1    -2.09035  -11.89881   19.24089
       H    10.15344  -14.79756   16.21657
       O    10.72520  -14.68771   15.43432
      H1    10.72306  -13.73352   15.52435
       H     4.23855  -12.31357   14.11516
       O     5.21899  -12.30276   14.03327
      H1     5.53936  -12.12399   14.94262
       H    -3.86107   -7.56240   18.79713
       O    -3.55955   -7.29830   19.78954
      H1    -2.89259   -6.59470   19.60849
       H     3.62689  -15.54804   14.76646
       O     4.33140  -15.88664   15.29624
      H1     4.18839  -16.84581   15.24019
       H    -0.68175   -8.82054   15.10047
       O    -0.41788   -7.90411   14.94481
      H1    -0.60332   -7.81795   13.97158
       H     9.12759   -7.32730   19.08715
       O     9.45851   -7.36561   18.18395
      H1    10.20432   -8.01629   18.36284
       H     0.34653  -16.69891   11.58513
       O     0.33775  -16.07959   12.33199
      H1    -0.52028  -16.33671   12.74187
       H     3.33815   -3.15674   18.38656
       O     2.87984   -4.01968   18.22667
      H1     1.97204   -4.01388   18.67696
       H     2.84840  -14.82410   13.03103
       O     2.31530  -14.66709   13.82797
      H1     1.43669  -14.86627   13.46829
       H    -3.58939   -7.94064   16.76352
       O    -4.53251   -7.85286   16.88534
      H1    -4.81493   -8.71630   16.52447
       H    -3.36686  -11.83328   14.89119
       O    -2.57905  -11.85920   14.33096
      H1    -2.42817  -12.81073   14.27867
       H     4.27451   -6.42030   15.80463
       O     4.50869   -7.23386   16.36548
      H1     3.73300   -7.75858   16.11755
       H     0.15127   -7.27332   17.80536
       O     1.07596   -7.20155   18.21624
      H1     1.68617   -7.34598   17.43615
       H     6.27510  -13.88272   13.08075
       O     6.75675  -14.16420   12.26518
      H1     7.35209  -14.92989   12.56134
       H     4.93820  -10.45112   11.54203
       O     4.93657  -10.01720   12.43522
      H1     5.41658  -10.71390   12.88043
       H     7.11180   -8.76372   17.66848
       O     6.14769   -8.90544   17.79606
      H1     5.70450   -8.28948   17.17603
       H     7.85863   -7.54447   15.60515
       O     8.61921   -8.11834   15.73026
      H1     8.93432   -7.74626   16.54881
       H     3.52384   -5.68284   18.77615
       O     4.32926   -6.18252   18.91100
      H1     4.44451   -6.69951   18.08564
       H    -5.13779  -10.94142   16.29052
       O    -4.68321  -10.19356   15.80505
      H1    -5.24441  -10.26385   14.99954
       H    -2.84483  -11.06762   12.75279
       O    -3.10306  -10.47828   12.04699
      H1    -3.22365   -9.62495   12.45096
       H    -6.79371  -11.57288   18.14847
       O    -6.31724  -10.80800   17.83540
      H1    -7.04989  -10.22325   17.60132
       H    -1.27568   -7.47620   12.09168
       O    -0.47747   -7.99189   12.29534
      H1    -0.74842   -8.76885   11.76394
       H     5.12482  -18.20853   13.78578
       O     5.02296  -18.73570   14.59860
      H1     5.91207  -18.74711   14.91733
       H     9.67956  -11.47876   15.62309
       O     8.98646  -11.99670   15.20279
      H1     8.17959  -11.72725   15.66597
       H     0.62426  -17.27376   16.08495
       O    -0.22331  -16.77285   16.24364
      H1    -0.26090  -16.84841   17.19737
       H    -0.07548  -13.03884   11.95326
       O    -0.01382  -12.45278   12.71354
      H1    -0.05855  -11.58677   12.24232
       H    -4.79289  -15.45687   18.53409
       O    -3.81485  -15.46933   18.26652
      H1    -3.35234  -15.58652   19.09371
       H     7.36947  -16.27562   16.91703
       O     8.18071  -16.73920   16.60474
      H1     8.61891  -16.98125   17.42174
       H     0.70017  -12.47734   14.43608
       O     0.95968  -12.08289   15.25038
      H1     0.71508  -12.83423   15.82703
       H    -3.12651  -14.46504   16.46626
       O    -2.39232  -14.29147   15.81914
      H1    -1.62809  -14.09996   16.37494
       H     2.94970   -9.80330   16.11226
       O     2.54182   -8.94544   16.08146
      H1     2.11370   -8.96318   15.20898
       H     6.26377  -10.41962   17.10499
       O     6.57758  -11.22314   16.72291
      H1     6.11171  -11.99869   17.06927
       H     2.74867   -9.65137   12.82468
       O     1.91276   -9.53748   13.26064
      H1     1.44025  -10.38277   13.29419
       H     1.21092  -10.13822   19.28888
       O     0.71148   -9.43677   19.73310
      H1     0.89586   -8.70526   19.12040
       H     0.06568  -13.50991   17.95440
       O    -0.05714  -13.82847   17.05482
      H1     0.13445  -14.79028   17.11530
       H     3.80155  -14.46792   10.79702
       O     3.96741  -14.67678   11.76961
      H1     4.83161  -14.32256   12.02557
       H     4.10046  -16.23368   19.01997
       O     3.15669  -16.54887   19.07415
      H1     3.10370  -17.12680   19.86897
       H     0.91073  -13.79542   10.04553
       O     0.07049  -14.21020   10.39198
      H1     0.39206  -14.85257   10.99226
       H     2.90516  -18.63807   16.36940
       O     2.00629  -18.66888   16.00958
      H1     1.58500  -19.24023   16.68788
       H    -2.92631  -15.88893   13.93172
       O    -1.98006  -16.05835   13.72537
      H1    -1.62798  -15.84824   14.62664
       H    -1.52860   -4.65487   18.93944
       O    -2.46000   -4.79342   19.30086
      H1    -3.07726   -4.51928   18.59998
       H     7.41860  -18.18809   17.01173
       O     6.77930  -18.97143   17.13650
      H1     7.19330  -19.71990   16.61181
       H     3.81340  -18.00621   18.21850
       O     3.96230  -18.94545   17.94250
      H1     4.90090  -18.94716   17.71268
       H    -1.70016  -10.75003   15.71368
       O    -1.02616  -10.30971   16.27487
      H1    -0.19720  -10.70116   15.92337
       H    -1.20640   -7.61641   16.64244
       O    -1.52967   -7.18222   17.45718
      H1    -1.38105   -6.22726   17.20593
       H     5.56778   -5.05536   18.25735
       O     6.20870   -4.52534   17.68993
      H1     7.08603   -4.82424   17.95045
       H    -1.21309  -10.15347   18.06541
       O    -1.76916  -10.09414   18.86073
      H1    -1.00622   -9.90273   19.43593
       H     0.38388  -17.10290   19.20845
       O    -0.15433  -16.38483   18.86871
      H1     0.19477  -15.59294   19.22615
       H     9.99485  -12.44425   17.69895
       O     9.88078  -13.29171   18.23031
      H1    10.75356  -13.36856   18.67028
       H    -1.34352  -18.05506   15.51941
       O    -1.97493  -18.77057   15.62133
      H1    -2.13325  -19.07725   14.68327
       H     4.01388   -7.59925   13.16934
       O     3.81556   -6.82066   12.59588
      H1     4.49040   -6.96054   11.88329
       H     7.44027  -13.87933   15.34477
       O     6.59837  -14.10639   15.86669
      H1     6.05169  -14.57946   15.23366
       H     2.76898  -12.57829   16.24842
       O     3.46127  -12.08271   16.78803
      H1     3.17547  -12.01687   17.71329
       H     0.01487   -4.52541   19.97748
       O     0.23601   -4.47657   19.04235
      H1     0.10090   -5.42826   18.85536
       H    -3.48457  -18.73656   18.59974
       O    -4.22691  -18.24046   18.20686
      H1    -3.88821  -17.33578   18.22083
       H     6.08438  -14.95834   18.52687
       O     5.93153  -15.86546   18.11142
      H1     5.51129  -15.61809   17.30784
       H    -3.41825  -14.23343   12.06567
       O    -2.69989  -14.45385   11.50654
      H1    -2.22661  -15.19860   11.98776
       H     6.99569   -7.64395   11.95540
       O     7.03279   -8.04275   12.82300
      H1     6.36966   -8.75041   12.78595

