180
frame 7 | Written by MDAnalysis XYZWriter (release 2.4.3)
       H    16.41304   -5.73222  -16.83506
       O    15.57890   -5.96071  -17.29943
      H1    15.88733   -6.78897  -17.70692
       H    12.42527  -11.58630  -13.97475
       O    12.03955  -11.35921  -14.84456
      H1    12.78694  -11.46534  -15.46041
       H     9.68406   -6.78229  -18.30826
       O    10.52983   -7.20603  -18.26351
      H1    10.19365   -8.13865  -18.22571
       H    18.30088   -6.46469  -16.52205
       O    17.90432   -5.68611  -16.09454
      H1    18.16257   -4.90309  -16.62557
       H     7.58135   -9.38334  -18.14089
       O     6.61803   -9.36992  -18.12590
      H1     6.35839   -9.91421  -18.85531
       H    11.35139   -4.68447  -16.84378
       O    11.45732   -4.93500  -15.88500
      H1    12.14159   -5.65648  -15.99719
       H    15.67178  -17.35408  -15.77642
       O    15.10948  -18.02559  -15.32441
      H1    15.49305  -18.11077  -14.43223
       H    14.07176   -6.28829  -11.70744
       O    13.28555   -5.78293  -11.93366
      H1    12.83335   -5.84645  -11.06042
       H     2.27783  -13.44227  -17.62798
       O     2.89444  -12.81331  -17.28067
      H1     3.74276  -12.98085  -17.68858
       H    11.34304  -14.06036  -15.08384
       O    12.09512  -14.71676  -15.04385
      H1    12.77728  -14.16304  -14.61119
       H     8.17964  -17.43304  -14.09841
       O     7.43827  -17.85667  -14.54209
      H1     7.98506  -18.48948  -15.04169
       H    10.14888  -10.28842  -10.55433
       O    10.89021  -10.81489  -10.14546
      H1    11.22154  -11.44327  -10.87532
       H    13.09598   -4.72404  -13.34024
       O    13.27030   -4.18179  -14.17434
      H1    12.72204   -4.69947  -14.80937
       H    17.72646  -11.12185  -12.75227
       O    18.62066  -11.56625  -12.74880
      H1    18.92839  -11.33389  -11.81129
       H     3.82338   -7.68379  -17.74219
       O     4.24876   -8.47431  -17.31159
      H1     5.15224   -8.47441  -17.68915
       H    11.44026   -8.90500  -16.67947
       O    11.61674   -8.71228  -15.72538
      H1    12.00593   -9.55276  -15.38567
       H    17.85101  -14.37098  -15.64883
       O    18.01089  -13.75512  -16.37189
      H1    18.07425  -14.36418  -17.15309
       H    10.21075  -17.07390  -12.78560
       O     9.94593  -17.22824  -13.69818
      H1    10.42114  -16.47620  -14.08663
       H     9.38580  -10.43285  -18.72963
       O     9.30424   -9.72027  -18.06147
      H1     9.23382  -10.35520  -17.23992
       H     8.92564  -10.43389  -14.15390
       O     9.14202   -9.93663  -14.90523
      H1    10.03793   -9.60103  -14.73527
       H    15.04610   -3.44209  -17.54922
       O    15.29488   -3.28666  -18.43233
      H1    15.46382   -4.12430  -18.81129
       H    17.32781  -14.90726  -18.85749
       O    18.29408  -15.01323  -18.97544
      H1    18.30499  -14.41280  -19.77678
       H     8.62754   -6.90419  -14.77575
       O     8.01274   -6.31414  -15.18067
      H1     7.63284   -5.99744  -14.36845
       H     9.63943  -11.55508  -15.80441
       O     9.35923  -12.09142  -16.52312
      H1     8.38997  -12.17908  -16.45740
       H    14.66300   -9.66541  -18.20540
       O    15.18031   -9.33273  -18.91953
      H1    16.02643   -9.72748  -18.60644
       H    14.45458  -12.43066  -13.56500
       O    14.20127  -13.29264  -13.97597
      H1    14.45698  -13.88913  -13.26056
       H    11.26552   -2.85298  -17.95366
       O    11.29195   -3.74169  -18.32073
      H1    10.45342   -3.66434  -18.86638
       H     9.81670   -3.85441  -15.42646
       O     8.81351   -3.79095  -15.55730
      H1     8.71961   -4.74321  -15.77505
       H     8.97002   -8.44027   -9.57031
       O     8.85757   -9.08277  -10.27829
      H1     8.17749   -8.80969  -10.91272
       H     5.28593  -14.25507  -18.04701
       O     5.20906  -13.44171  -18.51683
      H1     5.78336  -12.88288  -17.93883
       H     6.30210   -8.31272  -12.64323
       O     7.17311   -8.62501  -12.42885
      H1     7.54411   -8.70257  -13.29348
       H    14.29370   -7.61897  -14.66551
       O    14.99774   -7.95787  -14.09608
      H1    15.63538   -7.19524  -14.04611
       H    15.46389  -14.05497  -11.35640
       O    15.33751  -14.74634  -11.98026
      H1    15.99876  -14.65005  -12.72087
       H     9.33276  -13.47509  -15.49362
       O     9.38369  -14.25624  -14.90570
      H1     8.87761  -13.90115  -14.12321
       H     6.55207  -11.03280  -17.04709
       O     6.38624  -11.91399  -16.74259
      H1     5.70276  -11.74434  -16.14876
       H    12.73569   -7.56305  -16.07485
       O    13.25874   -6.74619  -15.83904
      H1    13.84548   -6.69353  -16.61289
       H    16.17226  -10.79938  -16.48480
       O    15.39115  -11.20305  -16.02991
      H1    15.42606  -12.11019  -16.35908
       H    11.71638  -11.27298  -18.05484
       O    12.50014  -10.72237  -17.96425
      H1    12.32042  -10.16783  -18.72663
       H     9.16998   -6.54655  -12.08235
       O     9.95583   -6.03544  -12.44848
      H1    10.66537   -6.68077  -12.41795
       H     8.61350  -15.45088  -15.78352
       O     8.14987  -16.02201  -16.45804
      H1     7.79424  -16.70716  -15.82796
       H    16.65841   -8.74554  -15.27071
       O    17.03075   -9.03440  -16.09351
      H1    17.96364   -9.08000  -16.02968
       H    17.81590  -16.79412  -15.65955
       O    17.51523  -16.82165  -16.57452
      H1    18.12210  -17.45455  -16.99552
       H     5.81813  -15.36253  -13.02527
       O     5.96319  -14.93680  -13.90871
      H1     5.45758  -14.13351  -13.80054
       H    18.59476   -9.12259  -18.36361
       O    18.22762   -9.71630  -18.98476
      H1    17.84641   -9.11446  -19.59684
       H     7.45230  -11.51570  -12.57126
       O     8.30454  -12.01887  -12.71622
      H1     8.27119  -12.58611  -11.85758
       H     6.68439   -6.39911  -17.21193
       O     6.22385   -5.96646  -17.98051
      H1     5.36669   -5.75665  -17.56980
       H     9.42542  -16.90008  -19.36219
       O     9.61778  -16.07431  -18.83190
      H1     9.34256  -16.32032  -17.96219
       H    11.75830  -17.29236  -17.69172
       O    11.72235  -17.65189  -18.60817
      H1    11.30752  -16.91147  -19.05943
       H    12.67430  -16.38665  -14.61176
       O    12.77926  -17.31953  -14.42114
      H1    13.68690  -17.44823  -14.75957
       H    10.00422  -12.46174  -12.20898
       O    10.97127  -12.50937  -12.34171
      H1    11.14394  -13.46005  -12.15881
       H    18.20216  -14.59136  -12.73337
       O    17.73413  -14.20965  -13.48272
      H1    17.73958  -13.26115  -13.38754
       H    14.44066  -10.99685  -10.88406
       O    13.85054  -10.25625  -10.83958
      H1    13.15547  -10.47404  -10.19070
       H    12.24107  -14.04716  -16.94724
       O    12.64053  -13.96959  -17.84038
      H1    13.58853  -14.07092  -17.65563
       H     3.03886  -11.60401  -18.39288
       O     3.15590  -10.71030  -18.78580
      H1     3.34097  -10.25084  -17.91164
       H    15.95063   -7.66369  -10.95434
       O    14.98405   -7.52620  -10.77391
      H1    14.64088   -8.42340  -11.03743
       H    11.83214   -8.76604  -11.63985
       O    11.66995   -8.03833  -12.25806
      H1    12.47412   -7.54629  -12.20706
       H     9.05647  -13.46299   -9.96898
       O     8.36228  -13.69912  -10.64687
      H1     8.51740  -14.67657  -10.72463
       H    14.76359  -14.94575  -19.07810
       O    15.42188  -14.41259  -18.65147
      H1    15.37316  -13.64617  -19.22521
       H    15.85991  -10.95824  -14.24190
       O    15.96841  -10.69572  -13.33937
      H1    15.44409   -9.88667  -13.35459
       H     6.02778  -15.77422  -16.77302
       O     5.38026  -15.90139  -17.48877
      H1     5.80160  -16.59004  -18.03706

