180
frame 1 | Written by MDAnalysis XYZWriter (release 2.4.3)
       H     4.97032    7.45680  -13.86993
       O     4.52740    7.43003  -13.00869
      H1     3.63219    7.68614  -13.33923
       H    10.28096    2.43961  -18.92230
       O     9.75570    2.91867  -19.59684
      H1    10.38569    3.41714  -20.09981
       H     6.77660   10.02935  -13.00447
       O     6.90436   10.57966  -13.76093
      H1     7.88216   10.47426  -13.89761
       H    15.36596    4.71744  -19.93118
       O    14.78129    5.17030  -19.23800
      H1    15.55456    5.42312  -18.64917
       H    11.67957    4.79042  -17.06574
       O    10.96134    5.27770  -16.54729
      H1    10.22350    4.61296  -16.55331
       H    14.14440    4.31179   -8.78126
       O    14.78583    5.09545   -8.99637
      H1    15.59407    4.50613   -8.98997
       H    11.16513    8.53671  -13.01376
       O    10.42864    7.95532  -12.90367
      H1    10.86835    7.22259  -13.37333
       H    17.49931    7.21074   -8.35343
       O    17.28777    6.53928   -9.03141
      H1    16.34869    6.43884   -9.01793
       H     6.37378    2.41898  -13.92956
       O     6.26945    1.46236  -14.01713
      H1     6.50373    1.14160  -13.14454
       H     7.55079    0.05332  -15.03598
       O     8.30695   -0.08849  -15.62256
      H1     9.03801    0.40884  -15.16295
       H    10.44031    9.45568  -16.53779
       O    10.83782    9.26681  -17.42086
      H1    10.48648   10.00035  -17.93569
       H    13.28379    7.97127  -19.00317
       O    13.10047    7.42416  -19.80758
      H1    13.70319    6.68527  -19.57723
       H    16.22459    9.52888  -14.57618
       O    16.11542   10.12656  -15.34453
      H1    17.07224   10.43933  -15.47574
       H    10.07801    5.10868   -7.46395
       O    10.66373    4.39444   -7.12129
      H1    10.03316    3.70324   -6.92349
       H    13.60180    4.60557  -17.86146
       O    13.21319    4.12794  -17.14038
      H1    12.97257    3.26884  -17.51213
       H    17.78151    2.04314  -11.52799
       O    16.89369    2.26162  -11.10861
      H1    17.11230    2.68002  -10.28187
       H     9.48654    6.47584  -16.85712
       O     8.99780    7.25891  -16.66768
      H1     9.55988    7.95629  -17.09476
       H    14.39558    8.16554  -14.43426
       O    13.90766    8.98818  -14.43173
      H1    14.46132    9.62915  -14.98403
       H    10.19796    0.98375  -10.94111
       O    10.67138    1.60922  -11.49841
      H1    10.90230    2.32599  -10.85433
       H    14.75848    4.88933  -13.96236
       O    14.38645    5.80184  -13.98967
      H1    13.41332    5.74081  -14.14269
       H     9.02680   -0.63300  -10.20026
       O     9.04042    0.32403  -10.03366
      H1     8.26402    0.51863  -10.56004
       H     8.13242    3.32042  -16.17369
       O     8.45394    4.22803  -16.20275
      H1     8.06673    4.58516  -17.01252
       H    16.61685    5.15921  -12.75716
       O    17.37846    5.68290  -12.42116
      H1    17.96699    5.49298  -13.18342
       H    11.42600    5.86283  -14.89977
       O    11.67042    5.89187  -13.97842
      H1    11.35783    5.05448  -13.59871
       H    11.56858    8.04264   -7.04545
       O    11.37699    8.43573   -7.89827
      H1    10.72232    7.87512   -8.31753
       H     7.86103    6.09237  -11.28780
       O     8.87348    6.06421  -11.37260
      H1     9.07346    6.87739  -11.87000
       H     6.91314    6.31106  -15.15454
       O     6.47639    7.11682  -15.55950
      H1     7.27157    7.61060  -15.82866
       H     7.44197    4.03750  -14.52502
       O     7.09726    3.88640  -13.61826
      H1     7.91884    3.52042  -13.21728
       H    12.41945    1.36370  -11.70086
       O    13.29616    1.31282  -12.06632
      H1    13.73543    0.59955  -11.56971
       H    15.44384    2.38005  -17.11996
       O    15.92939    1.64582  -16.85359
      H1    15.53215    1.26218  -16.04504
       H    12.93443    6.16909  -11.97400
       O    12.76690    5.53633  -11.27243
      H1    13.62248    5.48212  -10.74435
       H     4.97406    5.36880  -16.63469
       O     4.83548    4.44183  -16.91165
      H1     4.03428    4.16341  -16.55285
       H    17.77007    4.17914  -18.64721
       O    17.30451    4.49998  -17.84148
      H1    17.90040    5.22635  -17.60435
       H     9.71282    9.18075  -14.58632
       O     9.68925   10.11616  -14.92215
      H1    10.48207   10.48143  -14.50009
       H     8.77010    7.00810   -8.23921
       O     9.37826    6.40776   -8.65456
      H1     9.01557    6.52296   -9.57190
       H    16.54915    6.48747  -16.10448
       O    15.63055    6.73711  -16.31584
      H1    15.18210    6.25670  -15.63420
       H     5.79445    8.19328  -12.02375
       O     6.67507    8.55972  -11.77836
      H1     6.32082    9.06318  -11.00010
       H    12.63991    1.20256  -18.24922
       O    11.96561    1.80657  -17.93795
      H1    12.07995    1.52884  -17.00112
       H    12.68281    9.07988  -17.24739
       O    13.60524    8.88321  -17.37033
      H1    13.96379    8.44225  -16.61061
       H     9.60020    4.40794  -12.17633
       O     9.98176    3.86130  -12.90723
      H1    10.23213    2.97713  -12.52462
       H    10.84307    1.11256  -14.55405
       O    10.49189    1.67448  -15.26219
      H1    10.34140    2.51747  -14.78176
       H     8.69657   11.78634  -11.12096
       O     9.62996   11.81334  -10.97940
      H1     9.70458   11.29930  -10.18200
       H     6.40366    1.87175  -16.84865
       O     7.16643    2.08334  -17.40336
      H1     7.70859    1.29221  -17.23754
       H    13.25916    0.59422  -13.68839
       O    12.82480    0.03253  -14.32023
      H1    13.59196   -0.29656  -14.88480
       H    15.81002    8.79826  -12.76233
       O    16.41002    8.26877  -13.28128
      H1    16.74616    7.55015  -12.73882
       H     6.55933    1.82976  -10.99447
       O     6.78909    1.07673  -11.56429
      H1     6.14282    0.35816  -11.33434
       H     4.67698    6.00900  -12.26771
       O     5.12931    5.17123  -11.88481
      H1     5.56642    4.98924  -12.70560
       H    17.73440    2.38727  -15.59482
       O    17.86785    3.29366  -15.23456
      H1    17.57847    3.84274  -15.96480
       H    10.19193    4.82910   -9.72773
       O    10.75983    4.13133  -10.12298
      H1    11.44481    4.69899  -10.49930
       H    12.20609   11.38713  -13.07349
       O    11.72984   10.67014  -12.67704
      H1    11.07144   10.97194  -12.03517
       H    13.46140   10.60304   -9.08829
       O    13.78026    9.87416   -8.53625
      H1    12.97733    9.29898   -8.41965
       H    11.99571    3.64972   -8.66685
       O    12.82473    3.19588   -8.42307
      H1    12.88606    2.38587   -8.97957
       H     5.54843    2.96040  -10.01382
       O     6.40054    3.41038  -10.17723
      H1     6.27525    4.19640  -10.71519
       H    14.02953    9.55014  -12.87481
       O    14.63312    9.76776  -12.10033
      H1    13.97662    9.99443  -11.42521
       H     8.72452    5.72557  -18.91783
       O     8.09052    4.98040  -18.83398
      H1     8.58582    4.17924  -19.14462
       H    15.26254    0.95967  -12.64895
       O    15.83692    0.37372  -13.22330
      H1    16.51784    0.17347  -12.53147
       H    16.78428    3.21550  -13.86626
       O    16.00663    3.52176  -13.45759
      H1    16.15379    3.32930  -12.52542
       H    13.78030   11.47391  -17.10149
       O    13.31369   12.26655  -17.31173
      H1    13.26200   12.18625  -18.26203
       H    11.11476    6.09009  -18.03545
       O    10.80568    6.28591  -18.97002
      H1    11.47559    6.89608  -19.27996
       H    13.59917   13.40480  -13.48835
       O    12.85124   12.96164  -13.90824
      H1    12.07205   13.35979  -13.46064

