180
frame 9 | Written by MDAnalysis XYZWriter (release 2.4.3)
       H     6.42001   16.90184    1.90570
       O     6.85365   16.05160    2.17020
      H1     7.69741   16.32526    2.49164
       H    17.99369   11.96455    3.61030
       O    18.02205   12.89381    3.95734
      H1    17.16039   13.03406    4.38122
       H    14.99900   12.19550    4.97697
       O    15.49330   13.04328    4.97386
      H1    14.91471   13.63756    4.43579
       H    10.35912   13.38084   11.63776
       O    10.52947   13.65645   10.68534
      H1     9.67185   14.03910   10.49451
       H    16.44936   14.20627    1.48026
       O    16.85056   14.67761    2.25875
      H1    17.60251   14.07913    2.48148
       H     9.81722   18.69788   15.88706
       O     9.43240   17.81045   15.94998
      H1    10.32944   17.32248   15.92352
       H    11.80599   18.46266   13.95859
       O    12.11588   18.13946   13.07949
      H1    12.81139   17.50117   13.24557
       H    12.37359   17.89913    0.98977
       O    12.62987   18.66645    0.44568
      H1    13.20546   19.10542    1.08517
       H    19.18860   16.77290   11.44111
       O    18.24591   16.65983   11.58007
      H1    18.05083   16.00430   10.91760
       H    12.21955   18.08052    5.00470
       O    12.95407   18.60988    5.35317
      H1    12.42916   19.13307    6.01292
       H    15.41742   13.86806   11.20989
       O    14.48416   14.04522   10.86510
      H1    14.51059   13.60792   10.00179
       H    17.41866   15.76567    8.64458
       O    18.29137   15.34183    8.93263
      H1    18.95715   15.92295    8.43936
       H    13.40490   11.53069   13.54449
       O    13.42640   10.77800   12.91201
      H1    13.39421   11.36648   12.10841
       H    12.87710   16.37104   11.20590
       O    12.14111   16.37130   10.63640
      H1    11.85492   15.44797   10.69346
       H    10.56979   16.64428   11.40477
       O     9.62405   16.80828   11.77647
      H1     9.77864   17.20938   12.64572
       H    11.50060   14.81629   15.12929
       O    11.41031   14.60531   14.14900
      H1    10.57626   14.97298   14.00535
       H    18.07238   16.45171   13.39841
       O    17.38808   16.29660   14.12054
      H1    17.81049   15.55342   14.54749
       H     9.07338   14.63392    3.21086
       O     9.61462   15.23701    2.73681
      H1    10.09274   15.78480    3.34913
       H     8.00047   14.04934   12.14947
       O     8.57856   14.53889   12.74013
      H1     8.95581   15.31030   12.21318
       H    12.05053   12.56076    2.32966
       O    11.52895   11.73738    2.29461
      H1    12.13148   11.15057    2.84058
       H    14.24397   10.02816    5.06820
       O    15.09704   10.38287    5.53413
      H1    15.73162    9.62343    5.42287
       H     9.28458   14.25409    7.11936
       O     9.24771   15.24511    7.19783
      H1     8.50366   15.51500    6.61531
       H    17.37852   19.82533   11.31857
       O    17.17046   19.14534   10.65785
      H1    17.37119   18.30498   11.05369
       H    14.54659   15.60140   11.52659
       O    14.30907   16.32989   12.17480
      H1    15.08011   16.83832   12.31509
       H     6.38836   17.37729    6.92024
       O     6.77039   17.14196    6.09661
      H1     6.01916   16.57489    5.73300
       H    13.27945   18.32518    8.62052
       O    14.15646   18.67487    8.63436
      H1    14.67652   17.87699    8.37594
       H     9.61098   11.80009    7.69795
       O     9.11195   12.47517    7.23171
      H1     8.18267   12.27169    7.44583
       H     9.63145   18.97386    9.73225
       O     8.83954   18.33844    9.72304
      H1     9.05271   17.87606   10.57932
       H    18.00150   17.57442    3.47426
       O    17.95599   17.50098    4.46303
      H1    16.98189   17.58264    4.59302
       H     6.08288   17.51586    9.13667
       O     6.03721   18.29822    8.63426
      H1     6.91274   18.66551    8.83013
       H    10.40527   17.31938    4.83064
       O    11.03432   17.09430    4.05898
      H1    11.22489   16.19349    4.35495
       H    17.23687   14.73638   12.41603
       O    16.91300   13.88563   12.15318
      H1    17.48641   13.58724   11.39528
       H     7.79121   12.71447    4.57784
       O     7.62231   13.68178    4.42376
      H1     6.63990   13.62482    4.35793
       H    11.37611   14.68860    2.25780
       O    12.29084   14.36964    2.09916
      H1    12.42140   14.70252    1.21812
       H    12.32711   17.66640   16.56428
       O    11.96842   16.86889   16.09495
      H1    12.79733   16.54741   15.69673
       H    14.80223   18.01505    5.31246
       O    15.39987   17.23935    5.21687
      H1    14.96972   16.66638    4.63239
       H    12.79605   19.21782   18.29622
       O    13.08670   18.88480   17.46583
      H1    13.94583   19.21829   17.27316
       H    16.27028   18.66782   15.41160
       O    15.30259   18.68020   15.53382
      H1    15.00507   19.27436   14.83703
       H    11.77376   16.38628    8.86771
       O    11.67961   16.83265    8.02051
      H1    10.85110   17.38766    8.10849
       H    12.34509   13.23449   14.57701
       O    12.91911   12.59067   15.16386
      H1    13.63597   13.14273   15.46325
       H     8.24665   17.68002    5.83182
       O     9.20690   17.92860    5.83544
      H1     9.16819   18.87332    5.79734
       H    14.28780   16.10218    6.14614
       O    13.71537   15.52347    6.66411
      H1    13.11256   16.21137    7.02082
       H    13.75658   11.14391    7.78694
       O    13.55646   10.30492    8.30684
      H1    13.92649    9.67418    7.65358
       H    10.74622   14.85111    6.30337
       O    11.23984   14.72658    5.44632
      H1    12.14118   14.95740    5.71273
       H    18.29805   11.42917   13.86389
       O    18.95894   11.97083   13.45230
      H1    18.41370   12.72878   13.18535
       H    19.15885   13.63233    5.25029
       O    19.48714   13.84073    6.16546
      H1    19.35045   14.79266    6.20240
       H     8.13194   13.62335    9.30202
       O     8.18622   14.49130    9.66008
      H1     8.64763   14.93504    8.94860
       H     4.78496   15.38175    8.77248
       O     5.21003   15.91329    9.45568
      H1     6.06877   15.51357    9.61909
       H    13.65522   15.19269    3.07191
       O    14.46722   15.23821    3.57910
      H1    15.02958   14.88126    2.83810
       H    15.14421   12.55840    7.88316
       O    14.35882   13.08564    8.11603
      H1    14.12817   13.66186    7.38037
       H    14.25277   13.98163   17.13215
       O    14.96669   14.06452   16.37508
      H1    14.70112   14.85255   15.86439
       H    14.70072   15.85273   13.88819
       O    14.45381   16.06384   14.84647
      H1    14.90308   16.89273   15.04072
       H    18.51513   13.55225    9.46880
       O    18.76169   12.95551   10.18694
      H1    18.50640   12.05683    9.86753
       H     9.98433   11.80044    3.98909
       O     9.33546   11.35922    4.55293
      H1     9.45578   11.87205    5.41325
       H    17.16087   17.93951    7.49744
       O    16.46324   17.35365    7.74419
      H1    16.11906   17.15790    6.87386
       H    18.15918   17.61759   14.84410
       O    18.27642   18.36714   15.47994
      H1    18.26978   17.83789   16.36793
       H    11.21149   12.10894    9.60335
       O    11.00899   11.28619    9.13111
      H1    11.95348   11.13189    8.85956
       H     8.24941   14.35188   14.60624
       O     7.78316   14.31020   15.42803
      H1     7.84099   13.34865   15.62150
       H    17.37664   16.63334    1.62184
       O    18.03717   17.27606    1.75499
      H1    17.61958   18.07531    1.28843
       H    10.56394   18.41130    2.77725
       O    10.13127   19.27589    2.45286
      H1    10.79281   19.95794    2.76237

