180
frame 109 | Written by MDAnalysis XYZWriter (release 2.4.3)
       H     5.41774    0.93009  -12.14367
       O     5.34127   -0.03056  -12.08047
      H1     5.72957   -0.21986  -11.21755
       H    12.27617   -1.37389  -13.77799
       O    11.67968   -0.94463  -13.14696
      H1    11.11620   -1.62183  -12.82324
       H    10.58112    0.55605   -3.01431
       O    10.84898    1.13550   -3.72172
      H1    11.74967    0.78765   -4.00552
       H    16.24596   -0.65771   -4.87784
       O    15.80737   -1.13781   -4.19243
      H1    15.38434   -1.84793   -4.74482
       H    14.04042    0.68007   -4.61795
       O    13.24312    0.15598   -4.93425
      H1    13.42982   -0.70137   -4.52995
       H     5.44777    3.00402   -8.82601
       O     5.94349    2.38860   -9.37555
      H1     5.86635    2.86478  -10.29751
       H    10.63838   -1.54954  -15.82744
       O     9.83558   -2.00478  -15.60895
      H1     9.88054   -2.06866  -14.60488
       H    12.95119    0.08973   -6.88917
       O    12.79491    0.29689   -7.83301
      H1    11.98587   -0.25750   -7.89639
       H    10.84450   -3.75315   -4.51631
       O    10.35908   -3.21703   -3.83522
      H1    10.19240   -2.38043   -4.37917
       H     7.88268    0.01326   -8.74505
       O     7.51560   -0.80215   -8.39223
      H1     6.57190   -0.61221   -8.42553
       H    11.08715    4.34411   -8.92894
       O    11.82113    4.83142   -8.45564
      H1    11.42197    5.02643   -7.58432
       H    11.60507    2.51305  -14.90898
       O    12.21861    1.88535  -14.55044
      H1    12.20339    2.16293  -13.61885
       H    10.42372   -0.14527   -9.93799
       O    10.95175   -1.00586   -9.90187
      H1    10.20313   -1.56810   -9.68826
       H    13.90728   -2.33193   -6.29482
       O    14.57655   -2.84466   -5.83277
      H1    14.74328   -3.52523   -6.47428
       H    13.79487   -3.71506  -11.76318
       O    14.58541   -3.94402  -12.28709
      H1    15.25973   -3.53649  -11.68632
       H     7.29396   -2.11915   -5.52451
       O     7.34811   -1.14625   -5.54277
      H1     7.53686   -0.95927   -6.44070
       H    17.02689   -1.81643  -11.50906
       O    16.34822   -2.18630  -10.93700
      H1    15.75690   -1.37909  -10.86431
       H    16.10301    1.77042  -13.31538
       O    15.38932    2.36226  -13.01295
      H1    15.40626    2.12374  -12.02542
       H     7.99433   -5.87234  -14.44092
       O     7.80080   -4.89440  -14.38680
      H1     7.10263   -4.81295  -15.10606
       H     7.32455   -4.09446   -4.65118
       O     6.84164   -3.67166   -5.41076
      H1     7.26146   -3.99912   -6.21389
       H     8.22622   -2.02878   -9.45334
       O     8.93222   -2.71141   -9.50322
      H1     8.93268   -2.85307  -10.47715
       H    12.18333   -7.42660  -13.08316
       O    12.78384   -6.66438  -13.16751
      H1    13.41275   -6.83351  -12.43153
       H    10.41445   -7.39617   -7.55422
       O     9.46562   -7.23281   -7.46667
      H1     9.10455   -7.64891   -8.22992
       H    11.40849    5.19620   -5.47921
       O    10.62572    4.91759   -5.99840
      H1    10.62763    3.94326   -5.93923
       H     8.36408    2.46007  -13.94970
       O     8.28561    3.36587  -13.69363
      H1     8.18442    3.74621  -14.55722
       H    16.41061    0.06659   -7.19995
       O    17.12523    0.24980   -6.62755
      H1    17.84095   -0.39956   -6.82646
       H    14.76109   -2.55709  -15.33766
       O    15.68805   -2.19671  -15.45597
      H1    16.03087   -2.97181  -15.93605
       H    13.73228   -3.67741  -13.70836
       O    13.02406   -3.33744  -14.26964
      H1    12.55372   -4.19728  -14.48512
       H    10.63619    1.22187  -11.21698
       O    11.45987    1.28763  -11.73961
      H1    11.52166    0.42391  -12.02379
       H    11.12019   -2.78075   -7.64230
       O    12.13247   -2.62044   -7.66481
      H1    12.28947   -2.72307   -8.63787
       H    13.39949    5.35964   -9.37966
       O    13.97627    5.86599   -9.91569
      H1    14.85100    5.54872   -9.62632
       H    12.80208    3.60018   -7.04867
       O    13.35568    3.09618   -6.43443
      H1    12.87729    3.34209   -5.60874
       H     8.73441    0.04019  -14.51119
       O     9.01632    0.64558  -13.84466
      H1     9.95464    0.79843  -14.05604
       H     9.23524    4.27526  -12.49548
       O     9.65121    5.04125  -12.00921
      H1    10.57380    4.73779  -11.85843
       H     9.09880    2.19246   -5.95962
       O     9.59078    2.11004   -6.76722
      H1    10.33000    1.55719   -6.57205
       H     7.65498    2.27228   -4.03882
       O     7.75987    2.75255   -4.86772
      H1     6.84156    2.94550   -5.08583
       H    14.76847   -1.63922   -8.23081
       O    15.27166   -0.82661   -8.29062
      H1    14.51631   -0.19657   -8.28164
       H    11.92534   -2.49988  -10.81081
       O    12.46680   -3.27788  -10.63210
      H1    11.90493   -3.99505  -11.03996
       H    12.82726   -4.60077   -5.89362
       O    12.25883   -5.15695   -5.38942
      H1    11.97557   -5.86615   -5.94294
       H    12.94211    0.98366   -9.47842
       O    13.49302    1.54658  -10.13930
      H1    12.84516    1.78484  -10.82210
       H    15.75604   -5.81597   -7.44804
       O    15.47998   -4.85931   -7.56178
      H1    16.20426   -4.51633   -8.13199
       H     6.62208   -1.92775  -13.71301
       O     6.50437   -1.45797  -14.58975
      H1     6.16599   -0.59829  -14.37303
       H     8.92504    4.27046   -9.95038
       O     9.54932    3.71001   -9.43123
      H1     9.21811    3.68691   -8.49641
       H     8.81986    1.43891  -11.50342
       O     9.11948    1.24135  -10.57449
      H1     9.08675    2.14982  -10.23181
       H    14.46107    3.42233  -13.98755
       O    13.99640    4.14549  -14.45336
      H1    13.42440    3.58451  -14.93377
       H    17.37846   -2.92444   -9.47116
       O    17.77275   -3.44293   -8.73414
      H1    18.60225   -2.95742   -8.51396
       H    17.51220    1.53615  -10.47263
       O    18.43492    1.86514  -10.55207
      H1    18.43228    2.54424   -9.84667
       H    14.45556    2.66390   -9.14581
       O    15.17869    3.19249   -8.78354
      H1    14.74680    3.53859   -8.00394
       H    10.39111   -0.47334   -4.69491
       O    10.05181   -0.96185   -5.44901
      H1     9.09548   -0.85855   -5.26254
       H     6.96170   -3.92776  -12.71104
       O     6.94435   -3.24847  -12.01150
      H1     6.73111   -3.72348  -11.22928
       H    10.85488   -3.91115  -15.63742
       O    10.87413   -4.85857  -15.44376
      H1    10.09041   -4.95744  -14.91693
       H     6.87812    2.83766  -12.74935
       O     6.11119    2.77596  -12.12827
      H1     5.42745    2.97259  -12.79419
       H     8.97206   -4.07404   -8.14695
       O     8.76491   -4.56826   -7.29028
      H1     9.07658   -5.47174   -7.36804
       H    11.29005   -5.43555  -12.42911
       O    10.88839   -5.11456  -11.63272
      H1    11.01503   -5.72919  -10.92549
       H    15.04738    1.08859  -10.55130
       O    15.93104    0.67385  -10.66540
      H1    15.94866    0.17156   -9.83601
       H    13.27010    4.71551  -12.37673
       O    12.50838    4.92523  -11.80183
      H1    12.99715    5.47924  -11.10421
       H     5.65361   -5.01316   -8.65767
       O     6.49275   -4.95692   -9.13310
      H1     7.13342   -4.89570   -8.44793
       H    12.36073   -7.76456   -8.85763
       O    11.92546   -7.27464   -9.62391
      H1    12.73222   -7.30127  -10.21946
       H     5.31301    0.74203   -8.88054
       O     4.87935   -0.18301   -8.87737
      H1     4.26255   -0.08620   -8.14617
       H     8.62810   -3.09025  -12.26893
       O     9.55551   -2.83338  -12.48408
      H1    10.02810   -3.57759  -12.09387

