180
frame 10 | Written by MDAnalysis XYZWriter (release 2.4.3)
       H     0.13640   -4.21601    6.31792
       O     0.41094   -5.09089    6.53402
      H1     1.04775   -4.99714    7.22565
       H    -3.09660   -5.74718    5.12124
       O    -3.29234   -4.89330    5.58329
      H1    -4.21773   -5.06138    5.83737
       H     4.08710  -10.48956   10.78920
       O     3.54675  -11.24832   10.97588
      H1     3.88538  -11.84408   10.29298
       H    -7.10742   -8.06570    8.55989
       O    -7.84243   -8.33276    9.14281
      H1    -8.29231   -7.47909    9.42282
       H    -1.41958  -13.75357    4.02890
       O    -1.85427  -13.05204    3.53523
      H1    -2.34290  -12.54097    4.20408
       H    -9.39584  -11.47852   10.50278
       O   -10.33489  -11.46807   10.18784
      H1   -10.65572  -10.57466   10.54479
       H     0.99284   -9.88205   14.33066
       O     0.47324   -9.18246   13.94054
      H1     0.23520   -9.61692   13.05893
       H     1.95237  -14.41200    8.07264
       O     2.24022  -13.46860    7.98427
      H1     1.71423  -13.25453    7.15739
       H    -1.57287  -10.71698    6.86538
       O    -1.79088  -10.36838    5.97007
      H1    -1.63571   -9.41717    6.04146
       H    -1.29464  -15.17609    8.57054
       O    -0.67842  -14.56872    8.18884
      H1    -0.50153  -14.92239    7.29760
       H    -7.14399  -11.88468   14.69359
       O    -6.19496  -11.95881   14.90734
      H1    -5.76600  -11.33010   14.27140
       H    -6.86912   -8.58149   11.89838
       O    -6.09658   -8.26170   11.39601
      H1    -6.58039   -8.41129   10.50150
       H    -5.11587  -16.45960    9.76648
       O    -6.05900  -16.23439   10.09125
      H1    -6.42439  -15.87943    9.24327
       H    -6.33461  -11.23867   11.38706
       O    -6.95413  -11.97085   11.24638
      H1    -7.27136  -11.73661   10.36882
       H     1.52328   -9.73370    8.16329
       O     1.44117   -8.81109    7.87185
      H1     0.52476   -8.47611    8.12683
       H    -6.00796  -13.63367   11.77811
       O    -5.46948  -14.37376   11.93276
      H1    -5.65007  -14.93064   11.19749
       H    -1.09967   -1.84066   10.07392
       O    -1.13194   -2.75151    9.81460
      H1    -1.96651   -2.86735    9.34089
       H    -8.63420  -10.22036   13.01587
       O    -8.51521   -9.31719   12.58996
      H1    -9.37047   -9.27188   12.10592
       H    -3.82243  -11.09926   13.44820
       O    -4.07818  -10.34466   14.06413
      H1    -3.32388   -9.74183   13.86279
       H    -0.85589   -7.64120    5.41455
       O    -1.65883   -7.65912    5.88725
      H1    -1.31400   -7.31712    6.67748
       H     1.46308   -8.34439    5.88024
       O     1.10199   -8.21397    4.97257
      H1     1.77010   -8.65594    4.40654
       H    -0.40655   -5.93641    8.29041
       O    -0.62132   -6.87377    8.55600
      H1    -1.06399   -6.65217    9.42244
       H    -2.63264  -11.26172   15.96791
       O    -2.25390  -11.84984   15.33104
      H1    -2.29311  -11.32468   14.52817
       H     3.04193   -8.15081    8.84481
       O     3.69921   -8.04420    9.57302
      H1     4.17379   -7.20639    9.33804
       H    -5.41619   -6.78945    7.36263
       O    -5.67013   -7.55995    7.90570
      H1    -4.88828   -7.65166    8.49269
       H    -6.47014   -7.93297   14.89442
       O    -6.42745   -7.39387   15.67271
      H1    -5.84135   -6.72458   15.35465
       H    -4.23442  -10.71441   17.56335
       O    -3.98420   -9.93304   17.01699
      H1    -4.15674  -10.31210   16.15705
       H    -8.35755   -9.73245    5.39008
       O    -9.14035   -9.21431    5.23855
      H1    -9.44179   -9.14650    6.16606
       H    -3.41758   -6.78829   10.01059
       O    -3.74745   -7.71002    9.80258
      H1    -4.39361   -7.91317   10.43040
       H    -2.37054  -12.83620   11.92173
       O    -2.45250  -11.95993   12.39443
      H1    -1.86036  -11.34984   11.84974
       H     0.23460  -10.31180   11.20596
       O    -0.58727  -10.01330   11.60136
      H1    -0.81044   -9.13586   11.28178
       H     0.54429  -11.77147    9.11673
       O     1.14657  -11.08775    9.35077
      H1     2.00819  -11.54062    9.45222
       H    -3.83398  -13.48358    7.50992
       O    -4.66447  -13.26441    7.04950
      H1    -4.37422  -12.87546    6.19499
       H    -3.00937  -17.26115    9.42565
       O    -3.30475  -16.35649    9.20042
      H1    -3.06246  -15.76741    9.96930
       H    -7.19763  -12.10448    8.01552
       O    -7.85912  -11.58362    8.50741
      H1    -8.68074  -11.80075    8.05077
       H    -5.99498   -5.13374   11.93119
       O    -5.46638   -5.70374   12.47390
      H1    -5.65221   -6.53026   12.06357
       H     3.17400   -6.92687   13.92193
       O     3.01867   -7.47664   13.11067
      H1     2.29915   -8.04404   13.38695
       H    -3.89448  -14.28781   15.53148
       O    -3.25193  -14.55973   14.85705
      H1    -2.86545  -13.63067   14.76722
       H     0.68607  -11.91149    5.16813
       O     0.77379  -12.46354    5.93225
      H1     0.09308  -12.14174    6.50924
       H    -6.42326  -14.40753   13.63611
       O    -7.00711  -14.77730   14.30728
      H1    -7.86038  -14.91851   13.80967
       H    -3.74995  -15.73975   13.51149
       O    -3.93199  -16.67730   13.29659
      H1    -4.87557  -16.66834   13.41545
       H     2.25082   -6.28998   12.05523
       O     1.71160   -5.80445   11.42360
      H1     1.72326   -6.39425   10.64228
       H    -1.19410   -8.66865   14.07484
       O    -2.11763   -8.36771   13.86831
      H1    -2.22304   -7.49160   14.30980
       H    -9.04312   -5.82285    8.68033
       O    -9.04460   -6.07709    9.64759
      H1    -9.93623   -6.52933    9.70564
       H    -5.90263  -13.91226    5.95264
       O    -6.15801  -14.57825    5.27112
      H1    -6.23188  -14.19188    4.44194
       H     0.06518  -12.06216   15.00663
       O     0.92247  -11.66498   15.24380
      H1     1.48429  -12.30748   14.74436
       H    -8.30799   -6.61406    5.78291
       O    -8.77750   -5.99086    6.31653
      H1    -8.37525   -5.12650    6.03566
       H     0.35967   -5.34324   14.48663
       O    -0.22785   -5.82802   15.09076
      H1    -1.09371   -5.65371   14.62492
       H    -5.11107   -4.19891    7.52066
       O    -5.57573   -4.90526    7.01165
      H1    -6.27602   -4.42398    6.53763
       H    -0.63283  -10.70699    4.38543
       O    -0.07111  -10.59193    3.60385
      H1     0.37115   -9.72996    3.87066
       H    -7.05635  -10.54893    7.17281
       O    -6.71483   -9.99180    6.49331
      H1    -6.16632   -9.33736    7.00061
       H    -2.39877  -11.95565    8.68530
       O    -1.58673  -12.01985    8.16981
      H1    -1.35380  -12.95436    8.30927
       H    -3.25033  -10.81264    5.27145
       O    -3.77320  -11.52883    4.80844
      H1    -4.34193  -11.03432    4.14322
       H   -10.50210   -8.59336    7.40406
       O   -10.06494   -9.33077    7.81214
      H1    -9.30385   -8.89353    8.29275
       H    -4.22353   -3.49495    9.56809
       O    -3.96782   -3.07923    8.70173
      H1    -4.42438   -2.22928    8.69223
       H    -2.75316   -5.92602   11.45563
       O    -3.21587   -5.11485   11.15533
      H1    -4.11681   -5.27630   11.56113
       H    -3.11744  -15.27106   11.75410
       O    -2.36882  -14.68616   11.44566
      H1    -1.59963  -15.28228   11.35788
       H    -3.41345   -9.86488    9.85622
       O    -3.81915  -10.74676   10.00159
      H1    -3.43158  -11.09964   10.78248
       H    -0.33492   -6.81049   11.52897
       O    -1.14100   -7.32111   11.32612
      H1    -1.52195   -7.63019   12.15278
       H    -3.51419   -5.18420   14.58451
       O    -2.66852   -5.44749   14.07456
      H1    -2.65379   -4.64815   13.54321

