180
frame 8 | Written by MDAnalysis XYZWriter (release 2.4.3)
       H     6.44486    6.13697  -19.18769
       O     5.83546    6.66938  -19.71835
      H1     6.15297    7.56524  -19.49120
       H     2.33014    7.53766  -12.45456
       O     3.28486    7.52567  -12.29312
      H1     3.48429    8.04504  -13.10534
       H    10.55673   11.37731  -16.43596
       O    10.81747   12.25828  -16.18567
      H1    11.53868   12.08923  -15.59062
       H     9.51939    9.69317  -10.08985
       O    10.29762    9.53725  -10.64129
      H1    10.40966    8.57775  -10.42552
       H     6.63097   13.18616  -11.77272
       O     5.98566   13.79957  -11.35536
      H1     5.26915   13.91005  -11.98979
       H     3.33395   10.84990  -12.49556
       O     4.28492   10.80569  -12.39999
      H1     4.41392   10.42841  -11.52495
       H     8.91354   12.43886  -19.37433
       O     8.40085   11.63731  -19.46168
      H1     7.67819   11.69854  -18.82782
       H     7.70664    8.90265  -14.40942
       O     7.64510    9.75824  -14.83440
      H1     6.83857    9.60183  -15.32337
       H    12.87306    4.34808  -17.34783
       O    12.27079    4.87619  -16.85065
      H1    11.72056    4.17115  -16.48201
       H    11.69297    8.44485  -13.43001
       O    11.11094    7.90572  -13.92811
      H1    11.81026    7.29354  -14.33987
       H    12.13266   15.03325  -17.15818
       O    12.61893   14.99190  -16.34790
      H1    12.92051   14.07957  -16.40401
       H    13.90038    6.53480  -18.87921
       O    13.67670    6.52778  -19.78850
      H1    14.44665    6.02565  -20.09595
       H    14.94771    3.33080  -18.93302
       O    14.20291    3.27455  -18.28926
      H1    13.46250    2.77363  -18.74110
       H     7.91797   12.85593  -14.65735
       O     8.12161   12.85542  -15.61878
      H1     9.07900   12.57681  -15.59884
       H     8.72098    6.88026  -17.96075
       O     8.12404    7.64515  -17.88844
      H1     8.67417    8.31570  -17.54069
       H     5.21675   11.01540  -15.85911
       O     5.29781   10.04546  -16.00528
      H1     5.46111   10.18958  -16.95636
       H    15.48108    9.93383  -13.06884
       O    14.85973   10.50555  -13.45616
      H1    14.93609   11.34153  -12.96665
       H     2.34484   12.39124  -15.94553
       O     1.48224   12.04317  -16.11709
      H1     1.15929   12.44238  -16.92768
       H     5.89502    1.20575  -16.48216
       O     5.46626    0.50997  -17.03007
      H1     4.71961    0.25457  -16.45184
       H    15.18843    5.59800  -13.03370
       O    14.88325    6.23259  -12.34786
      H1    14.00874    6.45340  -12.77399
       H    10.32438    3.88398  -14.84844
       O     9.95317    3.42488  -15.60248
      H1     9.01018    3.50857  -15.41548
       H    13.05561    5.69549  -15.23175
       O    12.86094    5.99417  -14.35052
      H1    11.99585    5.53355  -14.18730
       H     4.41536    5.74135  -14.77982
       O     3.57218    6.16625  -15.05414
      H1     3.69520    7.07558  -14.79378
       H    13.44219   11.75209  -16.83079
       O    13.84995   12.61160  -16.70042
      H1    14.07017   12.84233  -17.64495
       H     4.22456    6.62482  -19.18663
       O     3.27070    6.32732  -19.35104
      H1     2.85737    6.40736  -18.44988
       H     8.47047    7.81033  -12.09475
       O     9.19074    7.16513  -12.25394
      H1     9.88819    7.76262  -12.66732
       H     6.87480    6.51055  -15.32800
       O     6.57042    7.42152  -15.45979
      H1     6.98043    7.53230  -16.32533
       H     1.67223    7.81297  -17.09004
       O     1.90897    6.87908  -17.10468
      H1     2.47913    6.77388  -16.29889
       H     8.28320    4.73483  -13.96152
       O     7.44239    4.70253  -14.47203
      H1     6.79273    5.01845  -13.78000
       H     2.24607    9.15934  -15.02298
       O     3.06916    8.77810  -14.74469
      H1     3.82313    9.22027  -15.19023
       H     2.08087    3.54145  -15.95748
       O     1.91614    3.96153  -15.07401
      H1     2.44590    4.75574  -15.12806
       H     6.15379    4.96440   -9.95230
       O     6.66767    5.78041  -10.09091
      H1     7.45451    5.41022  -10.53749
       H     4.83610    2.50081  -14.08598
       O     4.55105    2.82276  -14.98778
      H1     3.69394    3.19556  -14.71192
       H    10.85995    9.31327  -15.71417
       O    10.16090    9.58872  -16.30511
      H1     9.41030    9.67597  -15.75605
       H    13.77765   13.39565  -19.83235
       O    14.48974   12.96954  -19.26283
      H1    14.31434   12.05681  -19.50922
       H     9.59139    4.98332   -9.69932
       O     9.12883    4.94537  -10.57870
      H1     9.47655    5.81710  -10.88386
       H    15.61569    9.00482  -14.83061
       O    15.81071    8.03184  -14.84977
      H1    15.26601    7.69843  -15.60358
       H     6.77886    9.39693  -12.29286
       O     6.85461    8.50459  -11.93598
      H1     5.94400    8.19826  -12.07452
       H     9.84824    0.96945  -17.48613
       O     9.93913    1.86263  -17.81243
      H1     9.84244    2.39570  -17.00364
       H    14.01507    8.24180  -17.38564
       O    14.47060    7.42700  -17.26325
      H1    15.25057    7.70070  -17.71303
       H     5.81680   12.65859  -19.23846
       O     5.57628   12.55845  -18.25437
      H1     5.92701   13.37910  -17.88483
       H    10.00918    5.85400  -13.03946
       O    10.28826    4.98304  -13.35479
      H1     9.95135    4.33034  -12.71773
       H    13.01767    2.48972  -14.09656
       O    12.29999    2.31458  -14.72171
      H1    11.51900    2.40996  -14.18783
       H    10.14718   14.58304  -13.32967
       O     9.41151   14.22732  -12.85212
      H1     8.68683   14.85114  -12.98777
       H     3.91096   13.40522  -14.70781
       O     4.00131   12.99004  -15.58132
      H1     4.33797   13.76859  -16.08021
       H     6.35639    2.74717  -15.86419
       O     7.20323    2.26227  -16.04526
      H1     7.45242    1.78018  -15.22085
       H     4.70373    5.92454  -12.50860
       O     5.44705    5.41460  -12.53734
      H1     5.97612    5.78539  -11.83808
       H     1.92528    9.65102  -17.58022
       O     1.13949    9.27366  -17.19252
      H1     1.11135    9.97359  -16.57164
       H     7.06236   15.42121  -14.73088
       O     7.13566   15.78738  -13.87848
      H1     6.29451   16.29350  -13.77747
       H    13.51316    9.35003  -12.69449
       O    12.78621    9.09005  -12.13433
      H1    12.40823    9.89606  -11.84976
       H     3.00082    9.05512  -19.73218
       O     3.49335    9.41678  -18.91245
      H1     4.42809    9.29839  -19.12587
       H     6.21851    9.99995  -19.99166
       O     6.20388    9.53127  -19.13005
      H1     7.14178    9.34372  -18.92894
       H    12.76824    0.95151  -18.06778
       O    12.42626    1.40546  -18.87490
      H1    11.48142    1.46811  -18.61055
       H     7.16018   15.18296  -17.29474
       O     6.54617   14.75223  -16.73204
      H1     7.19432   14.10375  -16.39549
       H     7.68456    4.53383  -16.97834
       O     7.93934    4.86316  -17.86321
      H1     8.09753    4.04386  -18.36182
       H    10.34223   14.33329  -18.44654
       O    10.26856   13.47238  -18.88602
      H1    10.24817   12.98603  -18.07556
       H    12.17510    9.61075  -18.11989
       O    13.15556    9.73721  -18.05266
      H1    13.42142    9.72150  -18.98911
       H     6.17437   10.85950  -12.74894
       O     7.09043   11.09073  -12.55601
      H1     7.53870   10.78205  -13.33523
       H    11.31612    5.73234  -18.40155
       O    10.86286    5.99884  -19.24968
      H1    11.68403    5.94219  -19.74414
       H    12.99689   12.06744  -13.30836
       O    12.09366   11.96335  -13.56954
      H1    11.64712   12.30670  -12.79769

