180
frame 5 | Written by MDAnalysis XYZWriter (release 2.4.3)
       H    -2.62864   -9.83828  -14.26269
       O    -2.08385   -9.37278  -13.52515
      H1    -2.60227   -9.50824  -12.68424
       H    -1.77587  -12.03081  -15.82285
       O    -2.52394  -11.63456  -15.29061
      H1    -2.42859  -12.23506  -14.50939
       H    10.14778   -7.11034  -19.21086
       O    10.99386   -7.58583  -18.99452
      H1    10.69352   -8.50069  -19.07729
       H    -1.18469  -11.10539  -19.15470
       O    -0.80677  -11.32198  -18.28613
      H1    -0.20218  -11.98394  -18.46224
       H     6.83845   -5.61690  -11.31521
       O     7.12620   -4.85660  -11.75563
      H1     6.35833   -4.61829  -12.29559
       H     9.56526   -3.64760  -13.30695
       O     8.81585   -3.00973  -13.27293
      H1     9.09612   -2.33612  -13.81853
       H     6.93656   -8.37237  -18.38380
       O     6.38414   -8.93690  -18.93692
      H1     6.88208   -8.85524  -19.75169
       H     3.18381  -13.63282  -12.28017
       O     3.13779  -12.89225  -12.88525
      H1     2.53790  -13.34520  -13.52293
       H     3.68358   -2.78346  -10.93377
       O     3.59086   -3.36484  -10.15222
      H1     3.50952   -2.64814   -9.47128
       H     2.46910  -13.60695  -17.50007
       O     3.00746  -13.05176  -16.91229
      H1     3.92223  -13.28754  -17.19744
       H    -0.16986  -13.50322  -16.78182
       O    -0.31397  -13.65287  -15.79387
      H1    -0.68346  -14.52009  -15.72459
       H     1.13262   -2.98426  -12.37372
       O     0.65849   -2.78074  -11.56510
      H1     1.03607   -3.46012  -11.03297
       H     3.80576   -6.81572  -18.21415
       O     4.11005   -7.71968  -18.08319
      H1     4.82111   -7.80779  -18.73620
       H    11.33372   -7.53952  -17.20801
       O    11.60859   -7.31477  -16.28495
      H1    11.93149   -8.19937  -16.07421
       H     2.79702   -4.70832  -10.73553
       O     2.11567   -5.39793  -11.04467
      H1     1.69683   -5.58574  -10.20753
       H    -0.92639   -7.66573  -13.10888
       O    -0.50400   -6.81156  -12.99161
      H1     0.07136   -7.09783  -12.22201
       H    10.65837  -10.59507  -19.99086
       O    10.54574  -10.24375  -19.03416
      H1     9.87314  -10.89101  -18.66548
       H     3.01327   -6.97940  -15.21625
       O     3.94661   -7.20020  -15.42508
      H1     3.86005   -7.23251  -16.36119
       H    10.03208  -10.94945  -14.40519
       O     9.24685  -10.53314  -14.76794
      H1     9.00020   -9.93789  -14.06693
       H     1.25821  -10.51823  -10.41150
       O     0.74102  -10.00041  -10.99958
      H1     1.42382   -9.44500  -11.40425
       H     2.78949   -7.31480  -12.29989
       O     2.34767   -8.20117  -12.10140
      H1     2.26326   -8.61258  -12.97980
       H    -1.15463   -4.92533  -16.61630
       O    -1.37915   -4.89823  -15.70578
      H1    -1.84284   -4.04830  -15.61026
       H     3.80375   -0.47809  -12.67478
       O     3.75520   -1.42693  -12.41297
      H1     3.96130   -1.76939  -13.33415
       H     9.86456   -7.48044  -15.57368
       O     9.11632   -7.29254  -15.01095
      H1     9.57124   -6.73800  -14.33388
       H     8.75818  -11.42506  -16.38325
       O     8.55082  -11.89651  -17.21153
      H1     7.58511  -11.76338  -17.23471
       H    -2.95526   -7.96016  -14.09787
       O    -3.60468   -7.24031  -14.21196
      H1    -4.27236   -7.67333  -14.77401
       H    -0.73388   -3.81966  -12.01389
       O    -1.44740   -4.32928  -12.47574
      H1    -1.12349   -5.23989  -12.74911
       H     0.81098   -7.88980  -16.94574
       O     0.57508   -8.31857  -16.12594
      H1     0.56892   -7.61350  -15.47064
       H     9.13028   -4.64058  -16.20900
       O     8.40863   -4.16803  -16.71779
      H1     7.68602   -4.24327  -16.09267
       H    -3.21063   -4.68001  -16.51267
       O    -3.74287   -4.39207  -17.29708
      H1    -3.92003   -3.44582  -17.04300
       H     9.33508   -7.92534   -9.32094
       O     9.08609   -8.65142   -9.87526
      H1     8.65187   -8.23823  -10.68395
       H     1.71856   -4.94250  -17.77949
       O     2.61736   -4.74900  -17.42446
      H1     2.88394   -4.18289  -18.14462
       H     1.57523   -8.31871   -8.83104
       O     0.58590   -8.30830   -8.99092
      H1     0.56459   -8.78912   -9.83624
       H     7.29147   -8.45681  -12.48124
       O     8.22877   -8.36663  -12.33229
      H1     8.44581   -7.81440  -13.12581
       H    -1.86768  -10.14362  -17.14978
       O    -2.11277   -9.31188  -16.77706
      H1    -1.23962   -9.13568  -16.38537
       H    -0.79914   -4.33952  -18.35206
       O    -0.27095   -5.07355  -18.01106
      H1    -0.67383   -5.79907  -18.46377
       H    -2.66162   -3.02866  -18.54482
       O    -1.72851   -2.78471  -18.65234
      H1    -1.63051   -2.80293  -19.64757
       H     6.02448  -10.46456  -17.97488
       O     5.90775  -11.32643  -17.67446
      H1     5.59214  -11.14228  -16.77777
       H     8.52428   -5.58590  -12.61500
       O     9.42910   -5.80043  -12.69111
      H1     9.48451   -6.75216  -12.51107
       H     3.47418   -2.75226  -14.75600
       O     4.41938   -2.51481  -14.86594
      H1     4.41078   -2.18536  -15.78336
       H     8.32540   -6.26024  -18.72962
       O     8.61349   -5.72497  -19.47556
      H1     8.46712   -4.83659  -19.13993
       H     5.69104  -14.97918  -13.98564
       O     5.29273  -14.30226  -14.59895
      H1     5.81827  -13.46707  -14.49213
       H     1.23449  -13.96077  -15.19886
       O     2.06761  -14.44423  -14.83976
      H1     2.62745  -14.03509  -15.49395
       H     5.80668   -3.33004  -14.76325
       O     6.59401   -3.92789  -14.66469
      H1     7.26177   -3.24634  -14.33969
       H     8.22922  -11.74372  -13.93590
       O     7.48103  -12.40885  -13.85625
      H1     7.58129  -12.76816  -12.92848
       H     8.26256   -7.03737  -16.63403
       O     7.63696   -7.15402  -17.41696
      H1     6.84133   -6.90153  -16.95459
       H     4.19528   -6.37607   -8.59472
       O     4.76781   -5.57872   -8.54422
      H1     4.15335   -5.02930   -9.04136
       H     1.65293   -9.55131  -15.16479
       O     1.93626   -9.83802  -14.30295
      H1     1.26255  -10.51356  -14.06611
       H     5.79529   -6.47922   -9.56908
       O     6.31082   -7.01188  -10.14673
      H1     5.59916   -7.26865  -10.80540
       H    -2.04896   -8.12624  -18.23442
       O    -1.84375   -7.56720  -18.97617
      H1    -1.06775   -8.01911  -19.31700
       H     4.25575  -10.40708  -10.55201
       O     3.63494  -10.25415   -9.80966
      H1     3.34601  -11.17763   -9.65259
       H    -0.78259  -10.94155  -13.36671
       O     0.00597  -11.43632  -13.14802
      H1     0.31075  -11.01703  -12.33786
       H     5.19644   -7.66532  -14.18991
       O     5.43654   -8.05476  -13.31958
      H1     4.98515   -8.92536  -13.45784
       H     4.07783   -0.75740  -17.59220
       O     4.56748   -1.57307  -17.42589
      H1     4.56597   -1.96507  -18.31635
       H     2.96993  -11.14792  -17.95462
       O     2.89520  -10.60792  -18.75209
      H1     3.22394   -9.71044  -18.48868
       H     9.02895   -0.91047  -16.01114
       O     8.96211   -1.30969  -16.89544
      H1     8.63396   -2.25223  -16.84031
       H     1.24532   -5.26315  -15.58417
       O     1.28686   -6.02154  -14.96338
      H1     0.44242   -6.02597  -14.48250
       H     4.62533  -12.21872  -14.52185
       O     4.73506  -11.37470  -14.96989
      H1     3.87790  -11.01163  -15.01055
       H     4.73982  -10.62447  -12.92510
       O     5.16880  -10.70742  -12.04462
      H1     5.51603  -11.58427  -12.07929
       H     1.61859   -4.55270  -14.11950
       O     1.80777   -3.57883  -13.92888
      H1     1.37836   -3.12341  -14.63058

