180
frame 2 | Written by MDAnalysis XYZWriter (release 2.4.3)
       H   -14.94669   14.52648    5.88192
       O   -14.05242   14.76600    6.07791
      H1   -13.74406   14.79040    5.12565
       H    -3.02495   15.56368    6.57205
       O    -2.21953   15.04297    6.33934
      H1    -1.49835   15.33641    6.97469
       H   -15.07517   16.74254    8.68744
       O   -15.35708   17.58186    9.06028
      H1   -15.99282   17.91964    8.36242
       H    -8.43144   14.73755   14.33219
       O    -9.15825   15.39404   14.50593
      H1    -9.72690   15.22801   13.75681
       H    -4.71220   18.54332    2.80327
       O    -4.35687   17.77937    3.21033
      H1    -3.51447   17.92313    2.72149
       H    -2.49636   17.99811   10.71176
       O    -2.76975   18.55422   11.45124
      H1    -2.32439   18.13844   12.19629
       H    -6.31045    8.50531    7.67020
       O    -6.61547    9.38305    7.29460
      H1    -7.48902    9.17925    7.00552
       H    -3.20138   13.56051    5.74295
       O    -3.94928   12.98066    5.43573
      H1    -4.17513   12.55354    6.27901
       H    -5.74341   17.05458    6.43800
       O    -5.01077   16.51069    6.46911
      H1    -5.24447   15.93838    5.71049
       H   -14.47496   16.61047   13.19851
       O   -14.05974   17.41507   12.85531
      H1   -13.35984   17.60097   13.45442
       H    -5.79178   15.47057   12.08307
       O    -5.27545   14.61542   12.22002
      H1    -4.70756   14.90871   12.92861
       H    -9.14358   12.51053    8.96332
       O    -8.70988   11.73607    8.62206
      H1    -9.42500   11.04340    8.70812
       H    -8.79891   18.67065   12.15872
       O    -9.07667   19.62668   12.40183
      H1    -9.81814   19.73773   11.79046
       H    -7.08614   16.51200    1.25441
       O    -6.26587   16.31907    1.70415
      H1    -6.26564   17.08432    2.26592
       H   -10.91289   16.83436    9.39442
       O    -9.97989   16.62380    9.58757
      H1   -10.06343   15.66473    9.37597
       H   -10.73456   13.17299    9.71153
       O   -10.36929   13.76805    8.99049
      H1   -10.84467   13.49623    8.17695
       H    -8.92406   11.68689   12.02084
       O    -9.32253   12.21848   12.68179
      H1    -9.92147   11.65368   13.15842
       H   -12.98175   18.60357    3.18201
       O   -12.59545   18.11727    2.43212
      H1   -11.74067   18.66018    2.36573
       H   -11.54012    9.62892    8.24105
       O   -10.60059    9.59947    8.50715
      H1   -10.36740    8.95472    7.80015
       H    -7.47314   13.91207    2.85738
       O    -7.78073   12.97446    2.79591
      H1    -7.21936   12.59777    3.47099
       H   -17.55098   17.12943   11.42501
       O   -17.21092   16.35006   10.98665
      H1   -16.39661   16.61136   10.63179
       H    -6.03086   14.95836    9.02889
       O    -6.11557   14.53333    8.11320
      H1    -5.70175   15.18612    7.48999
       H   -10.25372    8.60656   11.56485
       O   -10.56757    9.47680   11.29608
      H1   -10.78233    9.49059   10.32728
       H    -6.44219   13.90350   13.19093
       O    -7.21559   13.59638   13.74855
      H1    -7.84791   13.29828   13.08941
       H   -11.67307   14.77100   12.22398
       O   -10.80584   15.07905   12.51786
      H1   -10.70921   15.79716   11.79891
       H    -9.22585   16.68213    7.93516
       O    -8.65130   16.21821    7.28970
      H1    -7.99306   15.78681    7.87234
       H    -7.87518    9.03034    4.17615
       O    -8.84090    9.13502    4.08756
      H1    -8.93111   10.10062    3.95274
       H    -8.01176   11.18313   10.14772
       O    -7.46291   10.90536   10.94656
      H1    -6.75233   11.59678   10.85185
       H   -17.08898   17.90893    5.54658
       O   -16.85207   18.02623    6.51493
      H1   -17.71295   18.48353    6.74984
       H    -3.32089   15.76638    3.24522
       O    -2.84747   14.92694    3.01245
      H1    -3.14232   14.85472    2.06846
       H   -11.00585   11.88894   11.76523
       O   -11.57740   12.15815   10.98398
      H1   -12.08425   11.37778   10.84912
       H    -6.08846   11.28759    7.75314
       O    -5.24972   11.79775    7.58521
      H1    -5.71000   12.70109    7.57499
       H    -4.70674   12.59664    9.53461
       O    -5.05065   12.20626   10.33911
      H1    -4.90790   12.87032   11.07084
       H    -7.39047   16.68516   11.26923
       O    -7.30964   16.12527   10.42914
      H1    -8.21689   16.16102   10.14351
       H    -2.21919   13.79700    9.59051
       O    -2.59869   14.60373    9.97404
      H1    -2.58745   15.32962    9.32376
       H    -3.14119   18.05873    8.65259
       O    -2.77303   17.16014    8.81289
      H1    -1.86056   17.39693    8.92967
       H    -9.43707   12.33263    3.42490
       O   -10.14571   11.76034    3.74683
      H1   -10.78217   11.78141    2.98797
       H    -7.98565   17.72750    6.62880
       O    -7.31070   18.29619    6.19252
      H1    -7.60760   19.08939    6.62495
       H   -12.46122   14.91735    2.94265
       O   -12.76741   15.51022    3.69852
      H1   -12.80910   16.34688    3.20070
       H    -5.56282   11.99696    4.85253
       O    -6.38313   11.67199    4.53872
      H1    -6.86094   11.84507    5.31404
       H   -13.11637   15.55141   10.84288
       O   -12.99724   16.39664   10.37665
      H1   -13.53811   16.95390   10.92280
       H   -12.94385   11.56347    7.03106
       O   -13.31385   10.67392    7.04156
      H1   -12.82446   10.28221    6.31022
       H    -5.02689   14.13224    4.28348
       O    -5.79180   14.72746    4.27783
      H1    -5.81954   15.21535    3.41675
       H   -14.89469   17.62968    5.95604
       O   -14.01475   17.72127    5.65173
      H1   -13.94115   16.76836    5.37157
       H   -11.76088    8.45290    5.06661
       O   -12.03047    9.39484    5.11424
      H1   -11.30138    9.81916    4.65463
       H    -8.84522   12.22915    7.08070
       O    -8.58741   12.49629    6.18606
      H1    -9.36887   12.71664    5.73756
       H    -7.20498   18.68327   15.89429
       O    -6.75095   18.79652   15.02468
      H1    -5.86100   19.00397   15.36051
       H    -9.83619   15.63792    5.52592
       O   -10.04113   15.73578    4.57743
      H1   -11.02137   15.53693    4.48271
       H    -7.43601   17.76598   13.74960
       O    -7.71808   17.21760   13.00358
      H1    -8.19990   16.48516   13.47862
       H    -3.16788   17.65205    6.38345
       O    -2.80137   18.23031    5.70533
      H1    -3.35194   17.91652    5.01817
       H   -16.76726   13.39251   11.16401
       O   -16.03235   12.68806   11.34164
      H1   -15.26393   13.28679   11.26583
       H    -9.90822   19.50260    0.99907
       O   -10.17412   19.47339    1.96184
      H1    -9.46237   18.91891    2.42395
       H   -14.08774   18.89861    9.57479
       O   -13.88922   19.86170    9.69715
      H1   -12.92878   19.72497   10.00759
       H   -14.04295   12.75802    2.84394
       O   -13.98265   12.08388    3.48929
      H1   -13.30407   11.54141    3.11911
       H    -7.86362   18.18036    4.57783
       O    -8.55088   18.13142    3.83539
      H1    -8.91849   17.23770    3.93990
       H    -5.75847   17.51305   10.09463
       O    -5.16332   18.21574    9.79314
      H1    -4.54279   18.23495   10.54520
       H   -12.60330   18.35251    6.73430
       O   -12.02096   18.97292    7.20148
      H1   -12.66387   19.65071    7.38776
       H   -11.42683   18.93167   15.07344
       O   -12.29810   18.46325   15.21972
      H1   -11.85907   17.60844   15.52377
       H   -12.57718   13.80815    6.82561
       O   -11.90994   13.09753    6.75055
      H1   -11.70394   13.09205    5.84537
       H   -12.99338   13.16088   11.71678
       O   -13.59893   13.89413   11.85214
      H1   -13.66021   13.83417   12.80605

