180
frame 11 | Written by MDAnalysis XYZWriter (release 2.4.3)
       H    -0.75307   -9.25137  -12.14091
       O    -1.03532   -8.32124  -12.10364
      H1    -1.44303   -8.34720  -11.22073
       H    -5.71686   -7.30206   -9.79675
       O    -6.13586   -6.43224   -9.80452
      H1    -6.53418   -6.32178   -8.92829
       H    -4.13070  -12.97696  -15.12045
       O    -4.78904  -13.64365  -15.38925
      H1    -5.21396  -13.16222  -16.14708
       H    -5.91167  -13.38492  -14.24939
       O    -6.80574  -13.22439  -13.78100
      H1    -6.71966  -14.02487  -13.22814
       H    -4.07398  -15.32785   -6.03092
       O    -4.50628  -15.64578   -5.15819
      H1    -4.04327  -15.13686   -4.49345
       H    -0.67487  -14.49271   -5.91468
       O    -0.47084  -15.40910   -6.11444
      H1    -0.20912  -15.80158   -5.27581
       H    -2.24111  -12.90308   -8.44238
       O    -2.76341  -13.41799   -7.79519
      H1    -3.22574  -12.73510   -7.28646
       H    -7.40801   -7.23143   -6.34340
       O    -8.00360   -7.90642   -5.99005
      H1    -7.45775   -8.69072   -6.07688
       H    -2.75222  -11.05503  -14.16265
       O    -3.22645  -11.87523  -13.94902
      H1    -2.44037  -12.38243  -13.63255
       H    -9.30472  -12.05827  -12.25518
       O    -8.73349  -11.45273  -12.81726
      H1    -8.32532  -12.12456  -13.33311
       H    -5.70858   -9.73293  -13.85372
       O    -5.49335   -9.77510  -14.83020
      H1    -4.75471   -9.13725  -14.71253
       H    -3.62745  -10.36857   -7.86071
       O    -4.20828  -10.78040   -7.19443
      H1    -3.65312  -10.61454   -6.40161
       H    -1.87160  -11.46293   -2.36415
       O    -1.21870  -10.99557   -2.86469
      H1    -1.75291  -10.57981   -3.57646
       H     2.36905  -14.70985  -11.34439
       O     1.90760  -13.82216  -11.30963
      H1     1.01779  -14.09179  -10.95578
       H    -5.45983  -11.90106   -3.38908
       O    -5.66512  -12.83746   -3.37252
      H1    -5.90900  -13.12724   -4.26583
       H    -0.91012  -15.66741  -12.50986
       O    -0.08308  -15.90016  -12.03004
      H1     0.44426  -16.03637  -12.81207
       H    -2.87425  -18.00023   -9.34926
       O    -3.80938  -17.78077   -9.43132
      H1    -4.13494  -18.63268   -9.13094
       H   -10.87896  -17.11244   -9.55801
       O   -10.22496  -16.52663  -10.05123
      H1   -10.05114  -15.75383   -9.46314
       H    -6.34172  -17.55926  -14.95215
       O    -5.73941  -17.55875  -14.17680
      H1    -4.96341  -17.82994  -14.69732
       H    -9.29925  -10.31698   -5.67372
       O   -10.04414  -10.42382   -6.28948
      H1   -10.66062  -10.84723   -5.60413
       H    -6.86174  -19.00416   -9.18972
       O    -6.25892  -19.66913   -9.63628
      H1    -6.80324  -20.15056  -10.33895
       H    -0.18272  -11.78789   -7.15384
       O    -0.18284  -10.99475   -7.75165
      H1     0.67227  -11.05402   -8.17180
       H    -0.46066  -16.02193   -7.86153
       O    -0.20990  -16.25276   -8.78813
      H1    -0.57520  -17.15232   -8.88921
       H     0.77231  -12.51929   -5.02601
       O    -0.09455  -12.70658   -5.41480
      H1    -0.74873  -12.33032   -4.79841
       H    -7.73672   -8.39010  -12.54303
       O    -7.28430   -9.23462  -12.52931
      H1    -8.01885   -9.85719  -12.76620
       H    -5.08618  -16.44399   -9.50297
       O    -5.92093  -15.95551   -9.45184
      H1    -5.68537  -15.07751   -8.99466
       H    -4.15745  -10.22735  -10.92105
       O    -3.69794  -11.01522  -11.22776
      H1    -3.66941  -10.91282  -12.18829
       H    -8.04681  -11.31040   -3.13614
       O    -7.93221  -10.41166   -3.49758
      H1    -8.35160   -9.98121   -2.72947
       H    -9.96646  -14.45010   -4.88354
       O   -10.09329  -13.84089   -5.58942
      H1   -10.19780  -13.04868   -5.11293
       H    -3.79802  -15.48224  -12.73179
       O    -2.83450  -15.66150  -12.59724
      H1    -2.96499  -16.60577  -12.45736
       H    -3.29260   -8.06381  -13.00300
       O    -4.32297   -8.15737  -12.96863
      H1    -4.66569   -7.35589  -13.46386
       H    -1.88651  -14.18432  -12.59262
       O    -1.43289  -13.31737  -12.44041
      H1    -1.73290  -13.17663  -11.52826
       H    -7.02045  -18.97824   -3.62957
       O    -6.11019  -18.70312   -3.82366
      H1    -6.30212  -17.87713   -4.33181
       H    -9.07610  -16.14594   -3.15880
       O    -9.38121  -16.13202   -4.08566
      H1    -8.45228  -16.24833   -4.46566
       H    -7.29277  -14.39717  -15.13037
       O    -7.68622  -14.63180  -16.00756
      H1    -8.03653  -13.76926  -16.25183
       H    -8.24103  -11.07024   -8.08744
       O    -8.54230  -11.35584   -8.95633
      H1    -7.69475  -11.25628   -9.52190
       H    -8.02299  -13.22703   -8.60708
       O    -8.47054  -14.04020   -8.37469
      H1    -9.22497  -13.70386   -7.80596
       H    -6.76726  -11.85190  -11.72615
       O    -6.49419  -11.86127  -10.83309
      H1    -5.60433  -11.48352  -10.95138
       H    -6.36039  -15.48491  -11.96751
       O    -5.61297  -15.47006  -12.56327
      H1    -5.82639  -16.25023  -13.06819
       H    -6.23889  -10.28759   -6.94719
       O    -7.08364  -10.52133   -6.56504
      H1    -6.93681  -11.32740   -6.08182
       H    -8.39385  -15.70031  -11.86028
       O    -8.04836  -14.95292  -11.35248
      H1    -7.67260  -15.46464  -10.59171
       H    -8.54834  -17.17149   -8.41203
       O    -7.73257  -17.44667   -8.01530
      H1    -7.15570  -16.98419   -8.62369
       H    -6.47242  -13.19940   -0.58423
       O    -6.74435  -13.94386   -1.12938
      H1    -6.45770  -13.63762   -2.01796
       H    -7.22802  -13.83086   -6.53085
       O    -6.63853  -13.27455   -5.95733
      H1    -5.95426  -13.23128   -6.69133
       H    -9.65175   -9.31435  -10.86392
       O   -10.19267   -9.63267  -10.17099
      H1    -9.59434  -10.30231   -9.85243
       H    -9.98803   -8.54290   -8.60251
       O    -9.89398   -7.82389   -7.91654
      H1    -9.50861   -8.17883   -7.13481
       H    -9.86923  -14.42307  -10.86100
       O   -10.52267  -13.73152  -11.04733
      H1   -10.77851  -13.37639  -10.19201
       H    -3.58411  -10.01356   -4.40742
       O    -2.83036  -10.15518   -4.96206
      H1    -2.61512   -9.24383   -5.22582
       H    -3.29852  -20.03755   -4.73375
       O    -3.29893  -19.38832   -5.39058
      H1    -3.84249  -18.69629   -4.92521
       H     0.29018  -11.56856  -12.29659
       O     0.14511  -10.67987  -11.90557
      H1    -0.51564  -10.91348  -11.21257
       H    -5.16608  -10.02819   -2.42270
       O    -5.07730  -10.08559   -3.41548
      H1    -6.04291  -10.12415   -3.58740
       H    -4.87605   -8.33589  -11.22394
       O    -4.95768   -8.75663  -10.35933
      H1    -4.15674   -8.42205   -9.89501
       H    -0.36214  -14.60288   -9.21884
       O    -0.31363  -13.69953   -9.70810
      H1     0.34042  -13.27019   -9.11693
       H    -9.35567  -17.28168  -13.25931
       O    -8.93743  -17.30014  -12.37628
      H1    -9.59052  -17.37148  -11.73521
       H    -4.46053  -13.37480   -8.46325
       O    -5.39178  -13.44013   -8.64050
      H1    -5.43474  -12.91161   -9.47863
       H    -2.33605  -10.52983  -10.10290
       O    -1.84092   -9.98338   -9.50127
      H1    -1.29174  -10.55324   -8.97046
       H    -1.37343  -19.41988   -8.18762
       O    -1.33425  -18.71842   -8.81286
      H1    -1.26078  -19.27905   -9.66314
       H   -12.13465  -15.41003   -7.52953
       O   -11.74682  -14.54464   -7.65575
      H1   -11.06495  -14.47620   -6.92884
       H    -7.30995  -16.65379   -6.34490
       O    -7.09166  -16.48091   -5.41749
      H1    -6.25778  -15.97028   -5.53855
       H    -4.15827  -19.02847  -12.43422
       O    -3.55227  -18.46179  -11.91378
      H1    -3.95808  -18.24266  -11.07330

