180
frame 12 | Written by MDAnalysis XYZWriter (release 2.4.3)
       H     3.13221  -12.01548   18.10104
       O     3.61535  -11.15309   18.20586
      H1     3.90980  -11.11940   19.10746
       H    12.85782  -17.43948   15.75620
       O    12.78857  -16.78316   15.06732
      H1    13.74719  -16.62639   14.81428
       H    10.36888  -15.08596   16.62494
       O     9.58929  -14.92651   16.07125
      H1     9.43075  -13.97537   16.21197
       H     4.68458  -11.01828   11.45238
       O     4.59810  -11.98601   11.54031
      H1     4.37718  -12.28923   10.65723
       H     4.05243  -16.24195   14.92742
       O     3.72470  -16.97089   14.34783
      H1     3.03639  -16.55570   13.87015
       H     8.85240   -9.65834    8.48795
       O     8.83901   -8.89450    7.89423
      H1     8.41881   -8.21748    8.52126
       H    11.14599  -14.07205   18.65104
       O    10.53669  -13.48177   19.22651
      H1    11.08813  -13.61852   20.01931
       H     3.13216  -13.36683    8.70172
       O     4.05226  -13.31354    8.97837
      H1     4.23165  -12.47521    8.55920
       H     2.55034  -16.12589   11.77216
       O     1.84337  -15.90339   12.40476
      H1     1.26558  -16.65251   12.09057
       H     7.98176  -10.68670   10.57070
       O     7.88701  -10.99756    9.67825
      H1     8.19897  -11.90511    9.75653
       H    14.00794  -12.60674   17.99472
       O    13.92212  -12.53718   17.02508
      H1    14.74930  -11.99353   16.82661
       H    10.69179   -9.00809    8.26293
       O    11.47291   -9.61177    8.17702
      H1    11.74805   -9.48461    9.14107
       H     4.73733   -6.33999   15.80397
       O     5.16043   -6.88238   16.46972
      H1     4.61961   -7.68575   16.36791
       H    14.14670  -11.35245   11.90290
       O    14.48242  -11.42636   12.82178
      H1    14.14075  -12.33040   13.06457
       H     5.32294  -14.89601   13.56532
       O     6.21298  -14.91545   13.24996
      H1     6.66134  -15.71571   13.72685
       H     4.55826   -8.73184   11.02695
       O     4.93450   -9.10345   11.85491
      H1     5.18030   -8.34899   12.43672
       H     6.84349   -8.55514   17.58900
       O     7.34678   -9.26417   17.10224
      H1     7.18967  -10.00201   17.68806
       H     9.06184   -8.68818   16.81196
       O     9.89616   -8.23000   16.93575
      H1     9.76957   -7.63567   17.65137
       H    11.57575  -15.32330   11.25846
       O    12.52499  -15.22742   11.18404
      H1    12.61457  -14.62961   10.40556
       H    10.58221   -5.57135   10.61010
       O     9.84425   -6.11923   10.94584
      H1    10.20758   -6.83088   11.41322
       H    13.59821  -14.34616   12.56588
       O    14.00577  -13.98464   13.38331
      H1    14.92184  -14.24156   13.13993
       H    14.05794   -8.00146   12.84811
       O    13.22480   -8.44199   12.67770
      H1    12.60804   -7.74980   13.01693
       H     7.64524  -10.79537   12.69763
       O     7.46145   -9.98440   12.25752
      H1     6.52803   -9.90736   12.17350
       H     9.78217  -12.53300   12.82976
       O    10.76040  -12.52988   12.72873
      H1    11.07217  -13.31824   13.14817
       H     7.82322  -18.97859   14.66232
       O     8.29821  -19.79514   14.44876
      H1     8.69801  -19.96936   15.31820
       H     9.60176  -11.58528   16.70656
       O     9.09577  -12.16815   16.07824
      H1     8.21991  -12.30081   16.57274
       H     6.45955  -16.12988   17.42552
       O     7.28767  -16.41913   17.00583
      H1     7.88027  -15.62517   17.02295
       H     7.62431  -14.02290    7.29714
       O     8.34354  -13.67883    6.71476
      H1     8.01065  -13.88177    5.77324
       H     3.08616  -12.96637   12.71157
       O     2.41541  -13.10493   13.38952
      H1     2.26333  -13.99672   13.30611
       H     3.31907   -9.83320   17.00287
       O     2.88030   -9.33905   16.28407
      H1     3.17049   -9.78140   15.49742
       H    15.33911  -13.45482    9.65071
       O    14.39005  -13.48901    9.58226
      H1    14.16414  -12.58267    9.88122
       H     5.43024  -11.84376   16.01386
       O     6.06388  -12.38205   16.41756
      H1     5.84128  -12.58182   17.32115
       H     5.60044  -19.03839    9.65464
       O     6.09197  -18.94462   10.48685
      H1     6.06781  -17.99966   10.51732
       H     4.59706  -10.26823   14.02332
       O     4.32086  -10.99172   14.60750
      H1     3.68909  -11.50569   14.11332
       H     9.95892  -12.06282    6.89515
       O    10.75474  -12.18727    7.47797
      H1    11.00725  -11.24870    7.58454
       H     6.08866  -15.42257   10.15560
       O     6.39456  -16.15631   10.78713
      H1     6.39521  -15.67869   11.64258
       H     9.31594  -15.92630   10.41512
       O     9.81967  -15.41113   11.10732
      H1     9.38214  -15.69925   11.93561
       H    11.65957  -18.09334   14.07826
       O    10.94323  -18.65724   13.74358
      H1    10.17396  -18.02947   13.48333
       H     4.37954  -16.36991   10.26930
       O     3.52813  -15.90358   10.49045
      H1     3.21227  -15.61523    9.61109
       H    11.33888   -8.32473   16.19320
       O    12.25612   -8.40318   15.96992
      H1    12.22159   -9.23481   15.41607
       H     8.40232  -12.46593   14.30150
       O     8.15223  -12.45072   13.38093
      H1     7.89764  -13.39472   13.33159
       H     8.14641   -5.95215    8.83592
       O     7.95189   -6.79905    9.22814
      H1     8.70277   -6.84447    9.86575
       H    11.39590  -10.02545   12.38526
       O    11.04701  -10.05249   11.50447
      H1    10.63164  -10.96587   11.49880
       H    12.72270   -9.17006   17.51619
       O    12.96452   -9.92388   18.11736
      H1    13.17890  -10.42705   17.29250
       H     9.48045  -14.08131   10.00106
       O     9.19166  -13.21891    9.64033
      H1     9.52960  -13.16937    8.72370
       H    13.88396  -10.54125    9.90792
       O    13.23516  -11.14420   10.25248
      H1    12.47667  -10.52325   10.50748
       H    11.41363  -10.60496   18.16326
       O    10.54887  -11.03827   18.06072
      H1    10.73008  -11.84754   18.49772
       H     6.34202   -6.73448   13.99749
       O     5.91861   -5.93417   13.60848
      H1     6.12608   -5.95387   12.67268
       H    13.04729  -10.66693   14.03213
       O    12.14329  -10.70450   14.35612
      H1    11.70341  -11.50745   14.11786
       H     7.58819  -16.99523    9.71475
       O     8.49670  -17.08639    9.32502
      H1     8.32663  -16.76630    8.42570
       H     6.88543  -17.25838   15.65519
       O     6.67066  -17.40418   14.67724
      H1     5.68326  -17.43598   14.74672
       H     3.63503  -14.56782   15.73089
       O     4.54134  -14.81941   15.87878
      H1     4.92723  -13.92646   16.02896
       H     5.59523  -15.60594    7.43024
       O     6.05849  -15.17423    8.15663
      H1     5.33811  -14.71237    8.61320
       H    12.40275  -15.67373   16.39886
       O    12.60782  -14.98025   17.06064
      H1    13.01296  -14.30350   16.46587
       H     4.97181  -15.59591   19.18901
       O     4.88196  -16.20568   18.40102
      H1     4.61880  -15.60183   17.70569
       H     6.69416   -6.33897   10.43258
       O     6.08694   -5.82281   10.98409
      H1     5.22062   -6.04026   10.49834
       H     7.32955   -8.87350   13.72445
       O     6.67725   -8.39298   14.27796
      H1     6.76196   -8.90759   15.12120
       H     9.28266  -16.09346   14.27812
       O     8.94638  -16.65364   13.58679
      H1     8.12671  -16.87268   13.98407
       H     5.50296   -9.21683    9.06923
       O     5.43368  -10.17409    8.90556
      H1     6.20153  -10.43138    9.43974
       H    12.63441  -16.84208   10.61679
       O    12.70225  -17.82139   10.48414
      H1    12.30612  -18.10806   11.35896

