180
frame 57 | Written by MDAnalysis XYZWriter (release 2.4.3)
       H   -17.41645   -0.47619    3.57457
       O   -17.93468   -1.03961    3.03310
      H1   -17.87744   -0.41921    2.27427
       H   -10.33418    0.76312    5.24387
       O   -11.07103    0.27462    4.76384
      H1   -11.09553    0.74206    3.86965
       H   -12.42757   -4.45071    7.66889
       O   -12.82774   -4.34211    6.77855
      H1   -13.62990   -3.73180    6.92057
       H   -19.00984   -4.11542   -1.22513
       O   -18.45509   -3.32830   -1.22867
      H1   -19.07384   -2.74097   -1.61059
       H   -18.64845    4.33216   10.11552
       O   -18.80072    4.03557   11.02026
      H1   -18.88204    4.91944   11.49933
       H   -17.88114    7.00205    2.25750
       O   -17.59955    6.48970    3.05962
      H1   -18.39535    5.95985    3.28934
       H   -14.29807    6.32048   11.87106
       O   -15.12303    5.87867   12.03041
      H1   -15.22435    5.20741   11.31616
       H   -14.82159   -1.53249   12.57494
       O   -15.63005   -1.96214   12.24615
      H1   -16.26244   -1.23596   12.31725
       H   -17.37840    1.52018   14.69621
       O   -16.54350    1.89721   14.44226
      H1   -15.89238    1.21757   14.76378
       H   -11.52723   -5.00082    9.40026
       O   -12.29855   -4.37451    9.36930
      H1   -11.81145   -3.55271    9.42640
       H   -17.13892   -5.82340    9.47805
       O   -17.56056   -6.46072    8.85529
      H1   -17.12162   -7.25161    9.13621
       H   -17.56469    0.90365    8.73340
       O   -17.75033    1.74992    8.28343
      H1   -17.92541    2.27631    9.09791
       H   -16.26345   -2.30645   10.22790
       O   -16.80603   -2.04028    9.50306
      H1   -17.31804   -2.83006    9.25425
       H   -15.64308    0.71710   10.48662
       O   -16.35322    0.69435   11.15369
      H1   -16.73490   -0.20036   11.01466
       H   -16.88289   -3.42382   -0.61909
       O   -16.08073   -3.48497   -0.08358
      H1   -16.04174   -4.47728    0.01933
       H   -12.95333   -3.65111    4.91972
       O   -12.71007   -2.80620    4.48384
      H1   -11.80934   -2.77489    4.76081
       H   -17.38871   -3.43016    5.35606
       O   -16.66774   -4.05671    5.15041
      H1   -17.10629   -4.90005    5.44837
       H   -13.25346    3.37393    2.50054
       O   -13.67135    3.59889    1.66126
      H1   -14.57880    3.16765    1.74219
       H   -11.06736   -2.97787    6.16940
       O   -10.35605   -3.05638    5.51214
      H1   -10.22952   -4.01415    5.48292
       H   -17.17834    3.47468   11.08169
       O   -16.23800    3.35546   10.76147
      H1   -16.01205    2.51642   11.07726
       H   -15.06089   -4.75073   10.24116
       O   -15.96403   -4.81274   10.49204
      H1   -15.83749   -4.89143   11.41090
       H   -16.94206   -0.07620    0.64884
       O   -17.73011    0.50392    0.57065
      H1   -17.73584    0.52332   -0.42650
       H   -15.39689   -2.51227    7.85085
       O   -14.93328   -2.69450    7.00067
      H1   -15.63682   -3.25937    6.58988
       H   -18.49004   -0.58306   14.98346
       O   -18.72138    0.20467   15.46467
      H1   -19.60475    0.36661   15.16988
       H   -14.69821   -0.32469    0.29371
       O   -15.29617   -0.81940    0.84645
      H1   -15.54635   -1.63090    0.28089
       H   -19.40992   -7.05251   13.36538
       O   -19.00594   -6.31824   12.90287
      H1   -19.61233   -5.61406   13.15086
       H   -14.62305    6.06331    8.37422
       O   -13.93040    6.69005    8.59910
      H1   -14.49030    7.51414    8.57719
       H   -17.50280   -8.28916    6.09872
       O   -17.53214   -9.22727    6.18407
      H1   -17.80578   -9.63582    5.31369
       H   -14.38827   -7.20666    6.92777
       O   -14.70250   -6.33071    6.85855
      H1   -13.94255   -5.72435    6.72580
       H   -16.64327    2.61320    2.35407
       O   -16.41752    2.63866    1.41873
      H1   -16.99387    1.86292    1.08542
       H   -15.80538   -3.91790    2.02373
       O   -15.67522   -4.75524    2.58492
      H1   -16.19131   -4.54306    3.38346
       H   -15.50801   -0.67720    4.78322
       O   -16.08754   -0.56857    5.55614
      H1   -15.72981   -1.32604    6.05622
       H   -15.25746    3.22815   13.23157
       O   -14.34206    3.59073   13.29958
      H1   -14.54361    4.50479   12.97650
       H   -12.92855   -3.98305   11.03492
       O   -12.97451   -4.20423   12.00789
      H1   -13.49871   -3.51972   12.39629
       H   -17.25959    4.76701    8.43297
       O   -18.19697    4.67074    8.36171
      H1   -18.43188    5.55396    7.95262
       H   -17.84708    3.05070    4.49800
       O   -16.97305    2.86452    4.07522
      H1   -16.25269    3.06780    4.72447
       H   -13.71781   -1.22210    3.61792
       O   -14.16977   -0.37102    3.56341
      H1   -14.81041   -0.42720    2.83737
       H   -18.97136   -0.55943    6.71633
       O   -19.61490    0.08797    7.05469
      H1   -18.96653    0.66133    7.57032
       H   -19.37229   -2.74157    5.09182
       O   -18.67392   -2.19719    5.47994
      H1   -18.36115   -1.89666    4.60471
       H   -13.89338    1.08531    9.47298
       O   -13.93719    0.19500    9.78801
      H1   -13.64145    0.37847   10.67407
       H   -15.65711    4.10345    7.52338
       O   -15.45444    4.51290    8.40068
      H1   -15.52776    3.75073    8.99485
       H   -16.37427    2.28309    6.62244
       O   -15.63692    2.87780    6.35158
      H1   -14.87810    2.44859    6.72144
       H   -11.10514   -0.77660    9.72493
       O   -11.36745   -1.56366    9.35186
      H1   -12.19062   -1.25792    8.92101
       H   -16.82356   -6.85925    4.93729
       O   -17.26633   -6.53795    5.75594
      H1   -16.49168   -6.68666    6.33637
       H   -10.39950    1.63205    8.06585
       O   -11.12125    2.23293    7.89525
      H1   -10.76171    2.51964    7.04620
       H   -13.35304   -1.29250    6.52249
       O   -12.55473   -0.87068    6.86084
      H1   -12.13736   -0.43995    6.10751
       H   -18.90609    7.52881    8.14217
       O   -19.18962    6.89926    7.47490
      H1   -19.00126    7.46431    6.72847
       H   -18.70678   -6.53288    9.73561
       O   -19.61369   -6.58847   10.25348
      H1   -19.27789   -6.55838   11.21297
       H   -18.21901    7.46790    4.55987
       O   -18.49611    8.12053    5.20265
      H1   -17.72247    8.51719    5.62250
       H   -14.71633    6.26284    4.72988
       O   -14.89994    6.47058    3.83228
      H1   -15.87069    6.28100    3.70572
       H   -13.42262    0.39531   12.88732
       O   -13.07283    1.21023   12.41764
      H1   -13.64188    1.92880   12.74385
       H   -12.90141   -2.81079    2.26802
       O   -12.86213   -2.03869    1.62481
      H1   -13.76658   -1.71949    1.54798
       H   -16.24260   -4.09478   14.46481
       O   -16.22557   -3.16811   14.75020
      H1   -16.20823   -2.74951   13.89856
       H   -13.77117   -6.84895    4.84169
       O   -13.23406   -7.04094    4.07842
      H1   -13.75891   -7.70675    3.61051
       H   -18.37944   -1.71055   10.76063
       O   -18.39221   -1.22588   11.62067
      H1   -19.37366   -1.02335   11.82284
       H   -13.07509    2.84752    5.14662
       O   -12.89843    3.44572    4.41245
      H1   -13.15303    4.27968    4.88080
       H   -12.14139    1.07535    1.44735
       O   -11.52539    0.79010    2.11615
      H1   -12.00272    0.03101    2.48327
       H   -16.77709    5.06112   -0.42393
       O   -16.22379    4.33807   -0.71940
      H1   -16.34095    3.65251   -0.01692
       H   -18.63895   -5.55662    6.72058
       O   -19.40958   -4.97662    6.57533
      H1   -19.71191   -4.68703    7.44765
       H   -13.68303    0.92258    7.43328
       O   -13.70879    1.82382    7.72621
      H1   -12.73491    1.98471    7.70964

