180
frame 8 | Written by MDAnalysis XYZWriter (release 2.4.3)
       H    13.69148  -18.69318   -3.77978
       O    13.28899  -18.37262   -4.60346
      H1    13.40858  -19.17965   -5.20157
       H    11.36135  -13.88631   -4.26979
       O    10.51404  -13.79841   -4.76127
      H1    10.65548  -12.94575   -5.15183
       H    16.28592  -17.51381   -2.43957
       O    16.48067  -16.57129   -2.64654
      H1    17.47501  -16.57169   -2.32667
       H    12.58004  -14.90520   -1.86714
       O    12.41912  -15.50361   -1.13878
      H1    11.89767  -16.11545   -1.64046
       H    12.62498   -9.96832   -7.23703
       O    13.47986  -10.11215   -6.73988
      H1    13.29815   -9.64791   -5.91251
       H    12.71933  -15.02461  -10.43465
       O    11.92278  -15.35159  -10.90274
      H1    12.23017  -16.16483  -11.35451
       H    13.40385  -12.33460   -6.84371
       O    13.44893  -13.16639   -7.34592
      H1    13.60216  -13.75764   -6.58670
       H    18.23623  -11.30107   -2.68236
       O    17.89066  -11.60608   -3.56057
      H1    17.37737  -10.86647   -3.92890
       H    10.30848  -16.82227   -3.47301
       O    11.00128  -17.00231   -2.82233
      H1    11.45810  -17.68804   -3.24450
       H    13.47290  -10.84583   -1.62384
       O    12.76266  -10.68035   -2.27440
      H1    11.96543  -11.11085   -1.88474
       H    16.87928  -16.75302   -9.37393
       O    17.49781  -16.45979   -8.65337
      H1    17.48626  -17.26582   -8.12535
       H    11.24038  -15.89825   -8.57427
       O    11.14639  -15.39330   -7.76652
      H1    10.36878  -15.83777   -7.43342
       H    18.08941  -19.27225    0.58514
       O    17.51874  -19.49796    1.42840
      H1    17.28296  -18.59587    1.73431
       H    13.38403   -8.27859   -3.66101
       O    13.44716   -8.44563   -4.66052
      H1    13.74436   -7.58181   -4.99914
       H    15.42113  -17.85583  -16.04260
       O    14.91848  -18.53581  -15.52938
      H1    15.42288  -18.65452  -14.68330
       H    18.97823  -12.12291   -4.79310
       O    19.75903  -12.25053   -5.34355
      H1    19.65610  -13.16056   -5.69042
       H    18.41565  -14.38823  -10.37125
       O    18.49911  -13.50631  -10.00571
      H1    19.47297  -13.45319   -9.81658
       H    17.05771  -10.16007  -12.93072
       O    17.95346  -10.51068  -13.01663
      H1    18.27350  -10.38046  -12.10157
       H    17.25073   -7.01917   -1.03246
       O    17.50567   -7.29033   -1.91928
      H1    18.37714   -7.63202   -1.83006
       H    17.71086  -13.24664  -15.13077
       O    17.82426  -13.13927  -16.10719
      H1    17.39885  -13.99434  -16.32874
       H    16.59721  -14.96869    0.85347
       O    17.46012  -15.01776    1.39144
      H1    17.25843  -15.82723    1.90552
       H    17.73852   -9.62349   -7.07730
       O    17.31565   -8.75822   -7.12372
      H1    16.44569   -9.11134   -6.85302
       H    17.13388  -14.31414   -6.99876
       O    16.50588  -13.89679   -7.58754
      H1    17.09158  -13.67742   -8.33689
       H    17.39846  -14.70716   -3.80354
       O    16.82212  -14.03557   -4.23883
      H1    17.25561  -13.19806   -3.89105
       H    15.62753   -7.90627   -2.04474
       O    14.60354   -7.77729   -2.01802
      H1    14.30074   -8.58234   -1.60987
       H    13.22242  -13.83595   -3.69720
       O    12.70466  -13.45167   -2.97696
      H1    13.06008  -12.54459   -2.93656
       H    16.35608  -19.80067  -12.96307
       O    15.47634  -19.65501  -12.63072
      H1    15.76460  -18.87365  -12.17095
       H    19.39872  -17.31312   -0.79855
       O    19.13869  -18.14465   -0.37703
      H1    19.74271  -17.97915    0.34980
       H    15.04441  -13.18800  -13.83477
       O    14.49327  -14.04075  -14.04510
      H1    14.95931  -14.51855  -13.30283
       H    18.76058  -14.96315   -7.69155
       O    19.27682  -14.60992   -6.94059
      H1    19.76457  -15.40939   -6.57528
       H    15.96743  -12.39299   -6.99867
       O    16.02572  -11.38365   -7.01902
      H1    15.09623  -11.17998   -7.01248
       H    18.83050   -9.36478  -10.89794
       O    19.40218  -10.07963  -10.55477
      H1    18.99249  -10.28539   -9.68177
       H    16.59398  -11.18203   -8.58898
       O    16.66737  -11.18477   -9.57150
      H1    16.69156  -10.21535   -9.69630
       H    16.92032  -18.21450   -6.36296
       O    17.71824  -18.60751   -6.79911
      H1    17.21239  -19.34312   -7.18789
       H    15.02638  -19.42629   -2.05193
       O    14.33132  -18.76983   -2.01530
      H1    13.90440  -18.74925   -1.13874
       H    15.78707  -13.98775  -11.41945
       O    16.11125  -14.80994  -11.79308
      H1    16.88604  -14.50508  -12.31024
       H    15.36141  -16.12467   -0.88237
       O    15.05136  -15.94437   -0.01372
      H1    14.16427  -15.81056   -0.34357
       H    14.79245  -13.08298   -9.90638
       O    14.84098  -12.67412  -10.84046
      H1    15.59400  -12.12963  -10.69220
       H    17.87397   -5.13387   -6.86467
       O    18.09892   -5.77685   -7.55926
      H1    17.52642   -6.47063   -7.27950
       H    17.79135  -16.86423  -16.22352
       O    16.89185  -16.77778  -16.56761
      H1    17.11332  -16.72749  -17.54224
       H    18.07841  -20.13218  -16.03854
       O    18.87122  -19.56570  -16.16464
      H1    18.58238  -18.65114  -15.93697
       H    14.35243  -15.62388   -5.33684
       O    14.23782  -14.68249   -5.04446
      H1    15.10997  -14.33647   -4.81353
       H    15.97742  -10.41120   -5.31340
       O    16.32378   -9.72291   -4.68768
      H1    15.49371   -9.45958   -4.30748
       H    10.51772  -12.51799   -9.27965
       O    10.04720  -12.93289   -8.51584
      H1    10.62322  -13.70928   -8.39761
       H    11.06006  -19.66859   -7.55085
       O    11.26234  -19.03135   -8.20693
      H1    11.65818  -19.48248   -8.98923
       H    14.84555  -17.29314  -10.23132
       O    15.70263  -17.37860  -10.64089
      H1    15.77325  -16.49650  -11.06366
       H    14.10885  -14.61286   -8.36331
       O    14.50167  -15.05533   -9.18646
      H1    15.36172  -15.28121   -8.82900
       H    18.60985  -13.88011  -12.82887
       O    17.86048  -13.39742  -13.21644
      H1    17.93616  -12.57943  -12.77592
       H    18.93197  -18.87113  -13.12794
       O    19.09567  -17.91598  -12.98603
      H1    19.40212  -17.70695  -13.85153
       H    14.67122  -18.85476    0.88961
       O    14.00065  -18.17865    1.02873
      H1    14.47484  -17.42923    0.57643
       H    20.20556   -7.59507   -6.13313
       O    19.69988   -8.29362   -5.77447
      H1    18.82469   -8.25151   -6.21952
       H    13.83705  -10.83873  -11.07765
       O    13.11924  -10.20355  -11.00353
      H1    12.32163  -10.74653  -11.21246
       H    14.25082   -9.70098    0.25778
       O    14.77791  -10.17939   -0.40616
      H1    15.64551   -9.94660   -0.03337
       H    15.36654   -7.72558  -10.22378
       O    14.42995   -7.70727  -10.43876
      H1    14.13863   -8.66180  -10.58235
       H    15.74465  -16.73406   -4.40849
       O    15.61807  -17.09689   -5.30167
      H1    14.70694  -17.43754   -5.25274
       H    16.89652  -10.29040    1.57213
       O    17.08655   -9.63178    0.84711
      H1    17.91662   -9.26182    1.05276
       H    15.43018  -10.51565  -14.46846
       O    15.21408  -10.45410  -13.51898
      H1    15.01867   -9.52652  -13.32324
       H    20.05608  -16.83540    2.97774
       O    19.65902  -16.54883    3.81119
      H1    18.71807  -16.78411    3.78318
       H    12.47991  -17.52443  -13.24163
       O    12.21565  -17.62799  -12.27367
      H1    12.48062  -18.52042  -12.15891
       H    17.60777   -7.36724  -11.02829
       O    17.23455   -8.22010  -11.41879
      H1    17.33825   -7.97545  -12.40085

