180
frame 5 | Written by MDAnalysis XYZWriter (release 2.4.3)
       H     3.25593  -11.78682   17.64161
       O     3.65524  -10.86438   17.74583
      H1     3.66395  -10.78429   18.72616
       H    11.81790  -15.89187   15.67588
       O    11.35203  -16.20575   16.41159
      H1    10.45466  -15.82022   16.18809
       H    -0.17223  -13.64556   17.89054
       O     0.62832  -13.14900   18.13420
      H1     0.52308  -12.26766   17.70227
       H     8.58503  -15.25845   15.74791
       O     8.35800  -15.61166   16.61616
      H1     8.60984  -14.85843   17.17150
       H     4.63812  -10.24007   12.39428
       O     3.81603   -9.85505   12.10696
      H1     3.20554  -10.38203   12.63699
       H     2.71780  -17.68381   16.23960
       O     2.00572  -18.30730   16.04645
      H1     2.34256  -18.61644   15.20983
       H     7.99770  -18.64931   12.76471
       O     7.75042  -18.30553   13.63923
      H1     6.89005  -18.72156   13.89248
       H    12.54588  -13.17372   18.27240
       O    11.70267  -12.95098   18.66274
      H1    11.76663  -13.33118   19.57134
       H     2.67301  -11.69131    8.82010
       O     3.16507  -11.64901    9.66655
      H1     3.56930  -10.78628    9.84462
       H     1.57381  -18.68394   10.36204
       O     1.39965  -18.35994   11.27545
      H1     0.58482  -18.81698   11.47806
       H     3.44659  -17.51907   13.13861
       O     3.17166  -18.43794   13.21846
      H1     2.42225  -18.52701   12.61582
       H     5.52086  -11.84795   13.84651
       O     5.69695  -11.51969   12.89519
      H1     5.20943  -12.13126   12.39239
       H     6.06826   -6.28409   16.44139
       O     6.58867   -6.83051   15.83321
      H1     6.21746   -7.67915   16.00107
       H    11.04197  -16.04115   11.59139
       O    10.93158  -15.52128   12.43801
      H1    11.83584  -14.97531   12.50475
       H    -2.36430  -12.08245   12.77798
       O    -2.50488  -12.12455   11.81490
      H1    -1.88344  -11.42331   11.61321
       H     5.28828  -18.52670    7.99151
       O     4.55036  -18.37304    8.59740
      H1     4.95755  -18.46204    9.47821
       H    11.22310  -13.78591   14.43719
       O    12.10289  -14.08940   14.69180
      H1    12.26854  -13.69415   15.55965
       H     8.82506  -13.36953   13.80864
       O     9.22840  -14.21019   14.13484
      H1     9.62253  -14.54662   13.28317
       H     5.43715  -17.42159   15.54028
       O     5.48105  -18.38666   15.77962
      H1     5.63693  -18.38673   16.76093
       H     9.42535  -10.25404   16.34871
       O     8.97436   -9.71928   15.64193
      H1     8.01845   -9.80956   15.84614
       H     0.72865  -16.83889   16.63015
       O     0.63556  -15.88031   16.75639
      H1    -0.31581  -15.88433   17.01568
       H     3.89932  -13.46999   17.79102
       O     3.14510  -13.54721   17.14268
      H1     2.36007  -13.44904   17.75207
       H    -1.11320  -16.69873    9.87002
       O    -0.18927  -16.36739    9.88364
      H1     0.22864  -17.13107   10.23092
       H    -1.81847  -15.11196   18.65978
       O    -1.48525  -14.69355   17.82576
      H1    -2.27989  -14.56628   17.31176
       H     5.24975  -19.05367   18.49447
       O     5.64608  -18.15011   18.51116
      H1     4.78878  -17.65304   18.69855
       H     2.00545  -11.70749   14.16799
       O     2.42358  -11.47177   14.98237
      H1     2.39668  -12.27771   15.44921
       H    -4.14920  -14.67532   16.22492
       O    -3.34311  -14.19547   15.95313
      H1    -3.61431  -13.41599   16.51930
       H     2.15179   -9.72321   15.74748
       O     2.04526   -8.80930   16.00113
      H1     2.55842   -8.32049   15.35497
       H     4.76708   -8.95293   15.54272
       O     5.53302   -9.30322   16.06787
      H1     5.03216   -9.73867   16.77327
       H     8.56334  -19.39402   10.60117
       O     8.25005  -18.54612   11.01315
      H1     7.28332  -18.51878   10.80689
       H     3.68197   -7.19230   13.25915
       O     3.84857   -7.75849   14.04870
      H1     4.02295   -8.52011   13.51345
       H     0.98414   -9.31633   19.82529
       O     0.62607   -8.41829   19.74392
      H1     1.23624   -8.01264   19.11763
       H     2.01451  -16.47536   20.01947
       O     1.10723  -16.60357   19.71004
      H1     1.17107  -16.42690   18.73918
       H     0.10783  -14.36994   15.68570
       O     0.03302  -13.68802   14.99134
      H1    -0.43767  -14.15126   14.28395
       H     5.49255  -13.24382   10.85566
       O     4.61593  -13.41248   11.17636
      H1     4.16235  -12.82791   10.54092
       H     8.43302  -15.36965   10.55010
       O     7.68634  -14.77188   10.80323
      H1     7.34026  -15.26592   11.56634
       H     5.54820  -14.15367   19.78538
       O     4.97906  -13.58791   19.25737
      H1     4.95316  -12.81546   19.88684
       H    10.09649  -18.24313   15.58610
       O     9.71049  -19.07958   15.26515
      H1     8.96826  -18.73219   14.64964
       H     1.59674  -11.46316   11.24199
       O     1.10642  -11.33639   12.12068
      H1     0.74055  -12.25528   12.27536
       H    -2.53598   -9.26569   18.40706
       O    -2.36724  -10.22243   18.43979
      H1    -1.60619  -10.25916   17.79445
       H    -3.00172  -15.41799   12.65723
       O    -2.45411  -15.64218   13.48189
      H1    -2.95822  -15.12421   14.12696
       H     8.88430  -11.02422   14.27546
       O     8.61931  -11.61753   13.58307
      H1     7.77310  -11.32395   13.22277
       H    -2.41069  -11.63219   15.07524
       O    -1.70535  -11.44138   14.48319
      H1    -1.11756  -12.13435   14.48642
       H     5.83531  -12.08189   18.38223
       O     6.54111  -11.59847   17.87370
      H1     7.27613  -12.16455   18.02725
       H    11.89082  -17.83567   16.94980
       O    12.08021  -18.72201   17.33388
      H1    11.41899  -18.84217   17.94567
       H    -0.24009  -10.95111   16.16611
       O    -0.02681  -10.73438   17.11842
      H1     0.58181   -9.99269   16.87176
       H     9.21748  -12.68277   11.02448
       O     9.84922  -12.17703   10.49733
      H1     9.49231  -12.35664    9.65046
       H     4.39742  -15.89441   16.53827
       O     3.50961  -16.31609   16.93338
      H1     3.00447  -15.48860   16.84703
       H     5.37025  -18.20796   11.76426
       O     5.56278  -17.73538   10.99645
      H1     5.08134  -16.93986   11.07907
       H     9.07315  -17.13174   10.24557
       O     9.59893  -16.37708    9.98607
      H1     9.60335  -16.52781    9.01252
       H     4.95404  -15.98728   12.97845
       O     4.00691  -15.96791   13.23606
      H1     3.62053  -15.27738   12.64116
       H     8.68558  -13.90088   18.94485
       O     8.74345  -13.38294   18.13523
      H1     9.66640  -13.32117   18.08054
       H     4.28551  -12.16650   15.23725
       O     5.21748  -12.42790   15.32539
      H1     5.47027  -11.81976   15.98417
       H    -2.54707  -18.50308   19.84280
       O    -3.05270  -19.12041   19.33070
      H1    -2.64271  -19.97939   19.49386
       H     7.03686  -16.73303    8.22395
       O     6.63345  -15.86607    8.38771
      H1     6.91422  -15.67472    9.27648
       H     6.53708  -15.29954   16.30372
       O     5.76492  -15.33114   15.71548
      H1     5.67219  -14.36007   15.48740
       H     8.57615  -17.33229   17.61761
       O     8.40832  -17.59556   18.52420
      H1     7.44911  -17.88781   18.48131
       H    -0.96441  -13.49606   11.78274
       O    -0.10099  -13.91216   11.96267
      H1     0.10221  -14.48748   11.23829
       H     6.53129  -15.50047   13.99610
       O     6.67090  -15.79737   13.09427
      H1     7.08630  -16.69819   13.30683
       H    11.93230  -16.72877   13.33068
       O    12.45939  -17.48204   13.67365
      H1    11.95605  -18.29653   13.41644

