180
frame 9 | Written by MDAnalysis XYZWriter (release 2.4.3)
       H    -5.90781   18.29898   -7.82385
       O    -4.94214   18.28881   -7.95551
      H1    -4.75613   18.55058   -7.05389
       H    -4.19642   11.31197   -8.07234
       O    -3.65697   10.87542   -8.75029
      H1    -2.74443   10.89708   -8.38033
       H    -3.57698   16.69032   -4.55018
       O    -2.78537   16.14430   -4.61108
      H1    -3.06886   15.28472   -4.25446
       H   -10.93170    8.63695   -2.34455
       O   -11.68852    8.02651   -2.38415
      H1   -12.15943    8.37019   -3.16742
       H    -5.84738   11.87597   -6.91814
       O    -4.98320   12.33537   -6.84387
      H1    -5.27146   13.25855   -6.60876
       H   -14.02016   19.18123   -3.20923
       O   -13.55888   18.46514   -3.68937
      H1   -14.03241   17.71672   -3.36671
       H    -5.89384   17.96415   -4.81687
       O    -5.63275   17.13183   -4.35049
      H1    -5.87787   16.49953   -5.05266
       H   -13.51487   13.99582  -11.54617
       O   -12.89106   13.26457  -11.59711
      H1   -12.65692   13.35550  -12.52733
       H   -12.25313    7.50816   -5.68494
       O   -11.56348    7.08470   -6.25713
      H1   -12.25917    6.83022   -6.95647
       H   -15.61134   12.70225   -5.58624
       O   -15.30172   13.03419   -4.72025
      H1   -16.16612   13.43725   -4.44157
       H    -9.06392   15.23149    0.30777
       O    -8.20242   15.57252    0.57059
      H1    -7.65254   14.96981    0.10361
       H    -7.43094    8.76697  -11.39456
       O    -7.57877    9.23598  -10.54762
      H1    -7.58684    8.44211   -9.89975
       H   -14.38169   14.54176   -4.89777
       O   -14.40388   15.37091   -5.30009
      H1   -15.30188   15.58075   -5.01384
       H    -9.66319   10.01857   -7.41594
       O    -9.43249    9.97677   -6.48200
      H1    -9.37491    9.03085   -6.37191
       H    -7.43837   16.17304   -2.25523
       O    -7.20663   17.10149   -2.14297
      H1    -6.57817   17.17602   -2.82328
       H    -7.98631    7.44394   -7.52847
       O    -7.54143    7.58248   -8.41474
      H1    -7.17421    6.69934   -8.49079
       H    -7.10949   10.94312  -10.93239
       O    -7.05763   11.86499  -11.27588
      H1    -6.54079   11.71809  -12.12347
       H   -11.29982   11.90457   -1.81227
       O   -10.99422   11.83296   -0.93091
      H1   -11.47568   11.04800   -0.57623
       H    -4.35759   12.97989   -3.05786
       O    -3.81572   13.66393   -3.46538
      H1    -2.88096   13.63918   -3.00405
       H    -8.08526   18.73099   -8.48679
       O    -7.65313   17.90900   -8.73013
      H1    -7.42117   18.16235   -9.65402
       H   -10.98910   10.50025   -5.85060
       O   -11.91791   10.72470   -5.60255
      H1   -12.44326   10.55407   -6.34063
       H    -3.93264   11.61001   -0.99845
       O    -4.67584   12.07748   -1.42847
      H1    -4.68938   12.94044   -1.01594
       H   -13.77043   11.16226   -2.08971
       O   -14.26781   10.83929   -1.33858
      H1   -14.20070    9.88574   -1.45876
       H    -8.98519   14.82332   -6.74091
       O    -8.63561   13.96462   -6.68415
      H1    -8.99375   13.71286   -5.83654
       H    -4.01281   17.13143   -8.76701
       O    -3.14250   16.79858   -9.07501
      H1    -3.46064   15.89582   -9.32064
       H   -11.61388   12.42080  -10.60637
       O   -11.42764   11.88838   -9.81102
      H1   -10.58545   12.29805   -9.50642
       H    -8.71319   14.83013  -10.79869
       O    -8.81597   14.08373  -11.41053
      H1    -7.97441   13.62446  -11.59683
       H    -2.13710   15.85171   -7.97028
       O    -1.73262   15.47331   -7.21591
      H1    -2.43157   15.71736   -6.50962
       H   -10.64412   16.56292   -6.83577
       O    -9.72117   16.42064   -7.20060
      H1    -9.24255   17.19420   -6.80126
       H    -7.38633   12.21544   -3.98513
       O    -6.47731   12.42759   -3.83580
      H1    -6.07661   11.52503   -3.92631
       H   -12.95249   15.53183   -4.01915
       O   -12.34453   14.98212   -3.51802
      H1   -11.69700   15.70693   -3.19651
       H    -8.96050   18.66426   -0.99976
       O    -9.16070   18.29339   -0.12910
      H1    -8.61486   17.40698   -0.24868
       H    -4.82613   14.57608   -9.21335
       O    -4.07701   14.03669   -9.35209
      H1    -4.10841   13.36004   -8.68147
       H    -6.83252   14.44721   -6.11868
       O    -5.96226   14.73689   -5.73587
      H1    -5.88666   14.15248   -4.92818
       H    -6.78871   16.43172   -9.21305
       O    -6.18190   15.66168   -9.37311
      H1    -6.08086   15.76008  -10.29914
       H   -12.13703   17.62700   -6.40546
       O   -11.58061   18.15867   -5.74542
      H1   -12.28594   18.47069   -5.09315
       H    -8.96934   14.25533   -2.15927
       O    -9.42833   14.74543   -2.84567
      H1   -10.15994   14.23127   -3.19851
       H    -9.86710    7.06762   -6.08218
       O    -8.90496    7.19623   -6.05635
      H1    -8.84699    6.82115   -5.12093
       H    -9.64113   16.42616   -9.15615
       O    -9.86358   16.27021  -10.05329
      H1   -10.75665   16.62990  -10.03393
       H    -8.84149   13.18177   -9.73976
       O    -9.07643   12.63055   -8.98780
      H1    -8.69157   13.11057   -8.23917
       H    -4.65890    9.28305   -8.91972
       O    -4.93760    8.38430   -9.03816
      H1    -5.87564    8.45097   -8.72084
       H    -5.10403   10.37955   -2.62922
       O    -5.26886    9.97613   -3.47571
      H1    -4.36388    9.79078   -3.62194
       H    -9.08875   11.17701   -5.21961
       O    -9.07568   11.76239   -4.41144
      H1    -9.22045   11.04572   -3.77187
       H   -13.35320   16.89477   -1.80832
       O   -14.10720   16.32055   -1.83854
      H1   -13.75523   15.55485   -2.37241
       H   -11.30641   10.08681   -9.34296
       O   -11.05560    9.18239   -9.42785
      H1   -10.59044    9.07884  -10.25569
       H   -10.60378   17.12695  -12.89639
       O   -10.13732   16.27594  -13.08294
      H1    -9.91606   16.03526  -12.12352
       H   -10.80402   13.63856   -0.41596
       O   -10.79174   14.53283   -0.14000
      H1   -10.96221   14.96400   -0.97117
       H   -15.42677   12.89846   -8.16257
       O   -14.98402   13.41657   -8.86117
      H1   -14.02032   13.51208   -8.58821
       H    -3.44715   12.38905   -4.42479
       O    -3.07050   11.67779   -4.97144
      H1    -3.87331   11.62972   -5.52397
       H   -13.72452   12.61306   -3.69282
       O   -12.93367   12.15429   -3.50630
      H1   -12.76744   11.53641   -4.28319
       H   -12.28594   13.90185   -7.36848
       O   -12.62069   14.15039   -8.25205
      H1   -12.21304   13.50156   -8.84877
       H   -13.11539    9.50707   -4.87209
       O   -13.40914    8.68076   -4.46510
      H1   -14.34039    8.83609   -4.36665
       H   -13.49370    9.69025   -8.53231
       O   -13.80007   10.00512   -7.61209
      H1   -14.24787    9.15703   -7.46725
       H   -12.63442   15.91904   -8.03389
       O   -12.73925   16.64088   -7.41012
      H1   -13.35344   16.15088   -6.84717
       H    -7.31211   12.65813   -0.61090
       O    -7.73253   13.31197   -1.23312
      H1    -7.41587   12.94682   -2.11968
       H    -7.61552   10.18310   -7.72391
       O    -6.82191   10.75236   -7.75268
      H1    -7.20487   11.52366   -8.07074
       H    -9.99007   10.54962   -1.61076
       O    -9.44014    9.90890   -2.16401
      H1    -8.65675    9.69267   -1.60591
       H   -12.04188   18.17967   -2.84465
       O   -11.42567   17.56953   -2.32189
      H1   -11.02926   18.16135   -1.71815
       H   -11.64717   14.31595   -5.27191
       O   -11.58279   13.47604   -5.68726
      H1   -11.86239   12.90799   -4.94713
       H    -8.58726   17.08619   -4.16233
       O    -8.91834   17.80269   -4.71759
      H1    -9.84741   17.67864   -4.89836

