180
frame 1 | Written by MDAnalysis XYZWriter (release 2.4.3)
       H   -16.86257    6.39886   -4.86670
       O   -16.73199    6.51110   -3.90659
      H1   -16.00626    5.92717   -3.94103
       H   -17.64870   -7.85116   -3.07822
       O   -17.01435   -7.14968   -3.24150
      H1   -16.24760   -7.74057   -3.49080
       H   -14.69875   -3.57430   -3.46350
       O   -15.41750   -3.01116   -3.04272
      H1   -15.23323   -3.25694   -2.08726
       H   -13.48857    4.85799   -8.34723
       O   -14.12542    5.20641   -7.68664
      H1   -14.67947    5.79471   -8.23907
       H   -17.36781    1.37658   -7.62924
       O   -17.95213    1.20498   -8.35414
      H1   -18.37398    0.35026   -8.35449
       H   -17.21087   -7.08745   -0.02207
       O   -17.08585   -6.24368    0.47882
      H1   -16.52352   -6.60441    1.17526
       H   -14.59396    1.35823   -6.96285
       O   -14.05090    1.86002   -7.56748
      H1   -14.22874    1.34461   -8.36733
       H   -10.49041   -3.81031   -4.65480
       O   -11.10123   -4.57116   -4.66013
      H1   -10.49371   -5.19012   -4.15269
       H   -11.30696   -3.12883   -1.06789
       O   -11.09124   -2.22677   -1.30284
      H1   -10.14620   -2.23104   -1.00543
       H   -11.37982    1.31394   -3.69258
       O   -11.17495    0.69446   -2.93103
      H1   -11.58217   -0.12829   -3.24352
       H   -14.45174    1.09100    2.42425
       O   -14.20368    1.52683    3.23426
      H1   -14.73607    2.30517    3.31847
       H   -14.98201    1.66623    0.01696
       O   -15.21135    0.74067   -0.02911
      H1   -16.03406    0.74449    0.49287
       H   -14.92112   -0.01592   -1.87762
       O   -15.01875   -0.36246   -2.81266
      H1   -15.39356   -1.22041   -2.61521
       H   -12.82338   -4.06287   -8.64056
       O   -12.59284   -3.22314   -8.98520
      H1   -12.76958   -2.57429   -8.28966
       H   -14.69012   -4.79867   -7.55742
       O   -14.97667   -4.52966   -6.64351
      H1   -15.17878   -3.64372   -6.82368
       H   -10.75951    1.99830    2.08375
       O   -11.14762    2.19193    2.98327
      H1   -12.09934    2.01662    2.73446
       H   -14.51859    6.85134   -4.79565
       O   -14.25234    5.93612   -4.54536
      H1   -13.99723    5.64675   -5.43196
       H   -13.96349   -4.00829   -0.16919
       O   -13.00236   -4.27781   -0.21021
      H1   -12.92331   -4.95209    0.51268
       H   -15.19114   -0.28161   -4.77751
       O   -15.10031   -0.36430   -5.74082
      H1   -14.17252   -0.71077   -5.91096
       H   -16.39602   -5.66666   -7.11615
       O   -16.90706   -6.22448   -7.78651
      H1   -17.66252   -6.44602   -7.24998
       H   -17.27628   -2.13603   -6.34856
       O   -17.92351   -2.33524   -5.65535
      H1   -17.44407   -3.03929   -5.16940
       H   -13.31800   -0.10066    0.31539
       O   -13.16821   -1.04214    0.10763
      H1   -12.33652   -1.01452   -0.36499
       H   -13.32553   -6.74332   -4.57049
       O   -13.23044   -7.63756   -4.93219
      H1   -13.49937   -8.23879   -4.24702
       H    -9.30206   -1.43150    1.33404
       O    -9.07441   -1.11512    0.46074
      H1    -8.08741   -1.24290    0.50414
       H   -17.89516    0.02046    1.47172
       O   -17.26222    0.28743    2.18453
      H1   -16.82465   -0.56553    2.29715
       H   -16.74693    4.62594   -6.16441
       O   -17.07005    5.45527   -6.56934
      H1   -16.55449    5.39537   -7.41969
       H    -9.90033   -1.41112   -3.51474
       O    -9.13452   -1.60622   -4.04194
      H1    -8.55699   -0.86567   -3.77392
       H   -16.12071   -4.59541   -0.11725
       O   -15.79463   -3.69061   -0.35194
      H1   -15.59481   -3.15955    0.44859
       H   -16.12788   -1.79598   -8.66958
       O   -16.15539   -2.01251   -7.71807
      H1   -15.79071   -1.23611   -7.37183
       H   -14.86258   -1.27018    1.20886
       O   -15.44389   -2.00660    1.59304
      H1   -14.97682   -2.34109    2.40603
       H   -17.92220    2.57215    1.81691
       O   -18.14386    3.28886    1.20738
      H1   -18.16060    2.94014    0.30349
       H   -13.40813    3.18605   -4.47442
       O   -12.74299    3.02035   -3.83793
      H1   -11.94162    3.38911   -4.16200
       H   -15.82729    2.83036   -5.58359
       O   -16.65766    2.68348   -5.99541
      H1   -17.15661    2.05989   -5.52461
       H    -9.46588   -0.38623   -6.04269
       O    -9.84156   -0.35556   -6.91486
      H1   -10.18925    0.51468   -6.81770
       H    -9.84343    0.55872    0.35279
       O   -10.01499    1.53428    0.30089
      H1    -9.13133    1.92555    0.33214
       H   -18.68100   -1.48604   -1.04234
       O   -17.80394   -1.37744   -1.30354
      H1   -17.43077   -2.11964   -0.79383
       H   -12.54672   -1.99247   -5.81088
       O   -12.59755   -1.50812   -6.68415
      H1   -11.72674   -1.19092   -6.84713
       H   -16.08224    4.20570    0.95629
       O   -15.15415    4.05719    0.89565
      H1   -14.79551    4.93158    0.81982
       H   -12.57100    1.86056   -1.54719
       O   -12.58189    1.93247   -0.61462
      H1   -11.65612    1.73981   -0.37233
       H    -8.93369    3.33126   -1.57402
       O    -8.97632    4.25227   -1.28373
      H1    -9.62498    4.71205   -1.89961
       H   -16.19047    3.97497    3.86796
       O   -15.27651    3.99370    3.55607
      H1   -15.33616    4.11934    2.56135
       H   -12.40592   -2.13013    3.13171
       O   -11.73359   -1.70211    2.53246
      H1   -12.21083   -1.59063    1.73579
       H   -11.04764    2.37885   -6.64878
       O   -11.36591    2.03349   -7.52217
      H1   -12.35656    1.97406   -7.41482
       H   -15.98151    1.50746   -3.09682
       O   -16.21070    2.41820   -2.99844
      H1   -17.13464    2.53605   -3.04997
       H   -14.16838   -4.80433   -4.98563
       O   -13.80743   -5.06135   -4.12848
      H1   -12.91741   -4.78294   -4.19683
       H   -16.92918    6.40615   -0.54621
       O   -17.11595    7.07924    0.13021
      H1   -17.97779    6.71529    0.42318
       H   -17.65192   -0.79420   -4.92449
       O   -17.65071   -0.11583   -4.22971
      H1   -17.13242   -0.52080   -3.50666
       H   -13.32804    6.20148   -0.05141
       O   -13.57025    6.43302    0.87795
      H1   -13.82659    7.38194    0.73820
       H   -13.08417   -6.40351   -2.38837
       O   -12.57050   -6.59886   -1.62245
      H1   -12.75192   -5.87745   -0.97475
       H   -19.42800    2.18127   -4.04393
       O   -19.87155    1.33041   -4.14970
      H1   -19.16711    0.70021   -4.09000
       H   -13.90001   -2.14648    4.82341
       O   -14.00794   -2.59602    3.99033
      H1   -14.37900   -3.46549    4.41227
       H   -12.62697    3.51436   -1.16606
       O   -12.50493    4.38015   -1.49894
      H1   -12.98004    4.39332   -2.30812
       H   -17.40411   -5.34396   -3.54356
       O   -17.64362   -4.45088   -3.81394
      H1   -16.93839   -3.95088   -3.37125
       H   -12.13271   -2.09653   -2.97028
       O   -12.35147   -1.46306   -3.72374
      H1   -13.27371   -1.29055   -3.41314
       H   -15.60292    4.42160   -0.88643
       O   -16.10854    4.87210   -1.59169
      H1   -15.92904    4.12346   -2.16007
       H   -17.79865    0.38219   -0.90308
       O   -18.25839    1.04706   -0.36726
      H1   -19.17566    0.80403   -0.43480
       H   -11.31904    5.49093   -2.20377
       O   -10.66329    5.92217   -2.84114
      H1   -10.37252    6.70228   -2.28346
       H   -18.89559    3.93609   -2.53241
       O   -18.45217    3.92874   -3.34083
      H1   -18.32884    4.93319   -3.40173
       H    -9.46589    3.26637   -5.44271
       O   -10.40185    3.46067   -5.26621
      H1   -10.40342    4.43745   -5.44316
       H   -15.41083    0.54260    4.29861
       O   -16.13062    0.45157    5.05535
      H1   -15.81437    1.12649    5.69526

