180
frame 9 | Written by MDAnalysis XYZWriter (release 2.4.3)
       H     6.33242    6.41021   19.24542
       O     5.64817    6.71667   18.62218
      H1     5.86617    7.63519   18.54743
       H    -0.12934    3.05528   14.41070
       O    -0.93298    3.25143   14.85914
      H1    -1.03219    4.21706   14.75707
       H     5.51255    2.99302   17.02647
       O     5.56578    3.97967   17.04504
      H1     6.30522    4.08960   17.54039
       H    -6.12709    3.72310   10.79103
       O    -6.22694    4.01733   11.71549
      H1    -6.83071    3.34575   12.09254
       H    -5.37039    5.70289   12.13576
       O    -5.06220    6.62644   12.26696
      H1    -5.89817    7.09897   12.04210
       H     2.85069    9.22282   14.69751
       O     1.93012    9.02070   14.79863
      H1     1.94913    8.13321   14.42868
       H    -6.89535    6.48304   18.36549
       O    -6.88680    6.07582   19.27532
      H1    -6.00376    5.72260   19.32831
       H    -3.28479    5.00757   18.87994
       O    -2.97747    4.99479   17.94887
      H1    -2.11420    4.59807   18.11743
       H    -0.45605    2.82597   18.14945
       O    -0.63923    3.60297   17.62456
      H1    -0.71483    3.20747   16.75290
       H     1.97488   10.60450   13.82921
       O     2.26623   11.33467   13.26830
      H1     1.48740   11.94166   13.32899
       H    -1.77711    9.74591   19.12739
       O    -2.41681   10.52009   19.03057
      H1    -2.96373   10.19311   18.28735
       H    -0.83062    3.31963   10.03132
       O    -0.32856    4.08069   10.35502
      H1    -0.90194    4.80446   10.15735
       H    -1.60017    1.50007   15.08246
       O    -1.77346    0.71526   15.69606
      H1    -2.49870    1.08377   16.26842
       H     2.37339   -1.60652   17.94845
       O     2.64527   -2.29630   17.33724
      H1     3.34971   -2.83450   17.78588
       H   -10.25058    6.66764   18.50541
       O   -10.76028    6.11186   19.11916
      H1   -11.55216    5.73874   18.73236
       H   -10.58013    1.21992   16.49657
       O   -10.46707    2.18403   16.71198
      H1    -9.60872    2.37629   17.08511
       H     0.97638    1.09739   12.20551
       O     1.36386    0.27912   11.89072
      H1     2.07964    0.61352   11.39511
       H    -2.09572    1.94007   13.25586
       O    -2.26154    1.36828   12.54639
      H1    -3.25108    1.21907   12.52397
       H    -2.95209    2.46480    9.27261
       O    -3.84170    2.63704    9.74504
      H1    -3.54742    2.49304   10.66876
       H     2.68512    4.99061   12.42896
       O     3.11654    4.27135   11.96336
      H1     3.52458    3.82968   12.75827
       H    -1.76543   12.03216   18.27466
       O    -1.28613   12.88503   18.30274
      H1    -1.31944   13.03977   17.32021
       H    -9.18994    3.06856   15.29218
       O    -8.27474    3.32737   15.04707
      H1    -7.63236    2.67033   15.37783
       H     0.13682    0.71279   16.16571
       O     0.92206    0.50618   16.69099
      H1     1.38435    1.34947   16.76203
       H    -6.20376    9.88866   15.34202
       O    -6.31028    9.04009   15.83842
      H1    -7.04668    8.59946   15.37691
       H    -7.48253    7.83908   13.17620
       O    -7.80465    7.81649   14.08974
      H1    -7.67863    6.89469   14.38634
       H    -7.14555    9.69500   19.44208
       O    -6.67948    9.09386   18.91122
      H1    -6.28753    9.61947   18.17071
       H    -1.09743    8.61378   16.42695
       O    -0.32696    9.23435   16.54820
      H1     0.38245    8.88985   15.91161
       H    -2.25713   -1.06961   16.12082
       O    -2.80032   -1.88242   16.34048
      H1    -2.14182   -2.49269   16.60811
       H     0.62422   12.35528   16.79903
       O     0.24678   11.76876   16.08069
      H1     0.21196   10.91317   16.59655
       H     4.21719    6.98703   15.82968
       O     4.26738    6.04662   15.66526
      H1     4.74475    5.66497   16.40712
       H    -5.04422   -2.22419   18.77683
       O    -5.17906   -1.59100   17.95391
      H1    -4.26151   -1.73913   17.49775
       H    -2.90879    8.08507   12.09043
       O    -2.08083    7.73058   12.38473
      H1    -1.75281    7.36976   11.58986
       H    -8.00565    1.92698   13.65141
       O    -7.83402    1.81985   12.69656
      H1    -8.60882    2.32783   12.33527
       H     0.74155    4.94648   17.64842
       O     1.59162    5.36877   17.66196
      H1     1.61410    5.63884   18.57705
       H     2.28608    7.18950   17.31861
       O     2.54891    8.13783   17.53823
      H1     2.33767    8.58606   16.69987
       H    -6.97641   -2.10364   15.11470
       O    -6.90107   -2.15661   16.09665
      H1    -6.03971   -1.70777   16.28704
       H     0.69707    0.78015   18.84386
       O     0.15649    1.48650   19.21581
      H1    -0.73795    1.11178   19.21967
       H    -2.74951   -2.62768   13.17106
       O    -3.49198   -2.26472   13.66353
      H1    -3.20437   -2.12551   14.57733
       H     3.50044    2.87807   17.31838
       O     2.57422    2.92812   16.98832
      H1     2.44614    3.85807   17.24598
       H    -6.17553    6.16398   15.90743
       O    -6.99994    5.90806   16.39032
      H1    -7.13887    5.00802   16.10677
       H    -4.67916    0.71659   13.75393
       O    -4.96775    0.75457   12.78437
      H1    -5.89904    1.09533   12.89785
       H    -8.12361    3.09677   19.01143
       O    -8.16785    3.53038   18.11392
      H1    -7.87898    4.42048   18.36489
       H    -4.03051    6.60656   15.38924
       O    -4.84006    6.40693   14.90525
      H1    -4.78694    6.72239   13.99351
       H     0.07065   -4.11148   16.71569
       O    -0.26243   -3.71807   17.51051
      H1     0.50368   -3.09952   17.57777
       H    -4.74495    2.56382   17.11996
       O    -4.28981    2.29444   16.27578
      H1    -3.96024    3.13474   16.01890
       H     1.78004    2.49988   13.32327
       O     0.90232    2.65434   12.90326
      H1     1.05178    3.51705   12.42229
       H     0.15976    8.78169   19.92503
       O    -0.60400    8.70634   19.33882
      H1    -0.28610    9.06946   18.48433
       H    -2.73653    6.59878   17.22221
       O    -2.47268    7.29153   16.66049
      H1    -3.11367    8.00791   16.87190
       H    -8.18460   -0.14014   18.33876
       O    -7.45066   -0.02734   19.01835
      H1    -6.65127   -0.51517   18.65739
       H    -6.23622    1.19739   18.77129
       O    -5.82998    2.07405   18.61264
      H1    -6.56300    2.68646   18.41371
       H    -1.43821    6.60972   15.35503
       O    -0.85571    6.34447   14.65000
      H1    -1.33217    6.45171   13.75340
       H    -1.83041    0.01849   11.26283
       O    -1.14730   -0.57489   10.82928
      H1    -0.41003   -0.50432   11.47785
       H     1.13010    6.04844   14.30508
       O     1.99548    6.35256   13.92464
      H1     2.62389    6.01281   14.54562
       H    -2.70309   10.96955   13.94357
       O    -2.51170   11.05628   14.89900
      H1    -1.51265   10.93810   14.98360
       H     3.16438    9.37523   18.72933
       O     3.38761   10.09667   19.27771
      H1     4.36440   10.07952   19.34194
       H    -6.05177    0.94199   16.26937
       O    -6.76493    0.83503   15.71273
      H1    -7.32969    0.37683   16.34836
       H    -3.35073    9.97307   16.21745
       O    -3.96506    9.66378   16.94619
      H1    -4.86268    9.52162   16.61760
       H     3.55427    1.77397   14.50093
       O     3.20696    2.68693   14.33383
      H1     2.94899    2.92261   15.24316
       H     1.55621    7.77749   10.72157
       O     0.55310    7.66775   10.82173
      H1     0.25723    7.28966    9.95564
       H    -8.41465    7.50154   17.16568
       O    -9.06474    7.70175   17.88390
      H1    -8.63420    8.47717   18.35334

