180
frame 77 | Written by MDAnalysis XYZWriter (release 2.4.3)
       H    -7.05938   13.47848   -7.95059
       O    -7.01519   12.63164   -8.38881
      H1    -6.14277   12.31844   -8.21012
       H   -13.40907    7.58000  -10.95620
       O   -12.70700    8.22270  -11.00243
      H1   -12.32539    8.08800  -10.11856
       H   -15.01857   15.50028  -13.64311
       O   -15.26676   15.13526  -14.46531
      H1   -14.43600   15.12480  -15.01718
       H   -12.86897   10.05030  -11.61848
       O   -12.70555   10.96555  -11.95929
      H1   -13.52405   11.11679  -12.42498
       H   -10.15533   10.18170   -7.67874
       O    -9.69329   10.90636   -8.04130
      H1    -9.10004   11.07758   -7.33797
       H   -12.99184    6.87501  -15.93661
       O   -13.52464    6.82372  -15.17731
      H1   -12.83651    6.78547  -14.43003
       H   -10.76145    8.10401  -16.35004
       O   -10.40976    7.20710  -16.42676
      H1   -10.13357    6.94521  -15.51197
       H   -16.05783    8.66034  -16.00357
       O   -16.42387    8.30191  -16.78185
      H1   -17.30411    8.71766  -16.71725
       H    -4.65216   13.09482  -15.22133
       O    -3.76732   13.03642  -15.67791
      H1    -3.38485   13.81212  -15.21897
       H    -8.88175   10.84731  -13.16647
       O    -8.24136   10.78173  -12.50053
      H1    -8.58443   11.50508  -11.94359
       H   -15.60416    9.74304  -10.14690
       O   -15.40083   10.13360   -9.27316
      H1   -14.47516   10.19820   -9.29337
       H   -10.05500    6.65876  -13.60577
       O    -9.17443    6.47704  -14.01862
      H1    -8.62038    7.22896  -13.73420
       H   -11.50737   14.37397  -16.97678
       O   -10.78808   14.43709  -17.63366
      H1   -11.16433   13.94106  -18.38396
       H    -8.75032   15.11171  -18.81521
       O    -7.76289   15.02028  -19.05812
      H1    -7.46478   14.30510  -18.42863
       H    -8.60601   16.52465  -16.79512
       O    -9.26850   16.30234  -16.14255
      H1   -10.09402   16.30568  -16.63037
       H    -8.15515    9.95495   -8.74214
       O    -7.59729    9.14901   -8.81880
      H1    -7.94255    8.84768   -9.69450
       H    -8.48007   17.08175  -11.77426
       O    -7.74428   17.45693  -12.30763
      H1    -8.19961   17.67624  -13.10965
       H    -8.00638    6.91067  -11.45601
       O    -8.61349    7.15376  -10.74130
      H1    -8.98554    6.31037  -10.46863
       H    -3.74485    9.56592  -15.46240
       O    -4.59044    9.99606  -15.75692
      H1    -4.30418   10.94802  -15.84165
       H   -15.45015   12.46482  -10.32789
       O   -14.64827   13.01827  -10.38827
      H1   -14.85102   13.62179   -9.68191
       H    -8.58610   10.28082  -17.76221
       O    -8.91180   10.95423  -18.40752
      H1    -9.86654   10.96779  -18.15706
       H   -12.28778   15.23721   -9.17457
       O   -12.05221   15.60489  -10.04264
      H1   -12.24098   14.88431  -10.68848
       H    -9.71740   17.10692  -14.70899
       O   -10.02355   17.57088  -13.91945
      H1    -9.97782   18.50816  -14.16929
       H    -9.26414   13.08115   -7.97677
       O    -9.56909   13.93919   -7.56005
      H1    -9.34265   13.79487   -6.62951
       H    -6.74991   13.25023  -15.88580
       O    -6.43018   13.34457  -14.94654
      H1    -6.44511   14.31650  -14.78825
       H   -12.17290   17.12812  -18.17549
       O   -12.24648   17.41706  -19.04587
      H1   -13.16288   17.81142  -19.07365
       H   -15.00842   11.93192  -14.19996
       O   -14.17409   11.56684  -14.57114
      H1   -14.39238   10.61034  -14.52079
       H   -14.70167    9.14045  -18.10264
       O   -14.04858    9.43580  -18.76520
      H1   -13.27318    8.81947  -18.68893
       H   -10.32264   15.79364  -10.66022
       O    -9.37493   15.64155  -10.88369
      H1    -8.82301   15.95774  -10.17462
       H   -11.67359    7.06304  -17.57975
       O   -12.62434    7.14759  -17.90517
      H1   -12.56071    6.91473  -18.83016
       H    -6.63403    7.83422  -17.25973
       O    -5.74545    7.46161  -17.39966
      H1    -6.05387    6.53979  -17.47959
       H    -9.23667   13.84496  -10.26411
       O    -9.19102   12.85315  -10.34585
      H1    -8.47946   12.64101   -9.75945
       H    -6.17079   16.93252  -14.88062
       O    -6.00170   16.02582  -14.58801
      H1    -6.50565   16.00433  -13.74233
       H   -13.77756   11.11697  -18.04074
       O   -13.01521   11.68350  -17.72438
      H1   -13.46550   12.10106  -16.97046
       H   -12.15688   18.24846  -11.37373
       O   -13.09790   17.96519  -11.31965
      H1   -12.87970   17.07587  -10.94551
       H   -17.32333   12.95096  -14.04133
       O   -16.46836   12.95759  -13.54119
      H1   -16.18768   13.84674  -13.72178
       H    -5.06198    7.23886  -15.70560
       O    -4.53490    7.10928  -14.83669
      H1    -5.36803    6.91288  -14.36975
       H    -7.89765    9.06249  -15.93039
       O    -7.99879    8.83002  -16.85730
      H1    -8.77356    8.26090  -16.98809
       H   -11.40410   13.94443  -12.78897
       O   -12.17107   13.70625  -12.23023
      H1   -12.15491   12.75124  -12.07662
       H   -13.06413   17.15339  -16.30520
       O   -12.18446   16.76835  -16.13945
      H1   -12.00082   17.39991  -15.43915
       H    -9.78372   12.29873  -14.07093
       O   -10.08345   11.42838  -14.22636
      H1   -10.86975   11.26350  -13.67964
       H    -7.35178    3.86062  -14.86148
       O    -7.57472    3.92985  -13.91263
      H1    -7.62816    4.90186  -13.87986
       H    -6.08736   11.35374  -11.80670
       O    -5.44009   12.06258  -11.72951
      H1    -5.07436   12.06959  -10.86903
       H    -4.34876   15.31323  -18.04804
       O    -3.78671   14.53946  -17.83467
      H1    -4.07978   14.41907  -16.86055
       H    -7.87100   17.82580  -18.39378
       O    -7.28087   17.22342  -17.84365
      H1    -7.39712   16.43472  -18.40432
       H    -8.53862    7.90642   -7.76948
       O    -9.37335    7.49755   -7.44848
      H1   -10.07183    7.92777   -8.01920
       H    -8.52762   14.30916  -13.66853
       O    -9.38390   14.08091  -13.26664
      H1    -9.18341   14.56577  -12.45632
       H    -3.51689    8.36989  -14.15031
       O    -2.93872    9.08670  -13.84643
      H1    -3.44841    9.34644  -13.09730
       H    -5.79849   13.89071  -11.87864
       O    -5.92886   14.73866  -11.47160
      H1    -6.40432   14.54476  -10.65938
       H   -11.58937   11.43242   -8.85066
       O   -12.56404   11.42508   -8.92700
      H1   -12.63305   11.89479   -9.73972
       H   -13.55278   14.84398  -12.23075
       O   -14.32916   15.30684  -11.84285
      H1   -14.63244   14.50534  -11.34309
       H   -14.75869    8.38074  -14.51130
       O   -15.25201    9.23595  -14.50002
      H1   -15.62055    9.26414  -13.58956
       H   -10.73501   10.41557  -15.78699
       O   -11.06866    9.85512  -16.51066
      H1   -11.65497   10.61093  -16.89717
       H   -11.58605    5.71807  -13.18036
       O   -11.73208    6.68936  -13.26137
      H1   -11.81252    6.97311  -12.33369
       H    -7.19525   10.28063  -14.01418
       O    -6.85432    9.47915  -14.51828
      H1    -5.93716    9.74112  -14.75861
       H   -11.94856    9.85245   -8.35960
       O   -11.57621    8.99442   -8.11298
      H1   -11.99445    8.95073   -7.22119
       H   -16.97744    8.72338  -11.72509
       O   -15.98503    8.78020  -11.87073
      H1   -15.84961    7.82051  -11.92170
       H   -14.91464   13.61469  -18.64981
       O   -14.90575   14.21183  -17.91149
      H1   -15.54619   13.89677  -17.25817
       H    -5.90271   12.90501  -18.02841
       O    -6.73351   12.95192  -17.63522
      H1    -7.06639   12.10402  -17.99038
       H    -5.93850    7.52857  -12.11541
       O    -6.59279    7.28272  -12.79999
      H1    -6.57393    8.07171  -13.32874

