180
frame 2 | Written by MDAnalysis XYZWriter (release 2.4.3)
       H    11.61298    4.32039  -19.69827
       O    11.18470    4.35014  -18.81520
      H1    11.11123    3.46188  -18.55794
       H    13.24393    3.17697  -16.94540
       O    14.09339    3.50143  -17.33190
      H1    14.32282    2.76110  -17.95295
       H     6.95665   -6.08392  -14.42445
       O     7.09238   -6.66754  -13.64538
      H1     7.82234   -6.25762  -13.15949
       H     6.12965   -5.05831  -16.49830
       O     6.52772   -5.00846  -15.61416
      H1     5.92333   -4.29524  -15.25444
       H    11.07290   -7.64209  -16.68718
       O    10.96069   -8.05815  -17.55861
      H1    10.50350   -7.38712  -18.11959
       H    11.65944   -0.65849  -18.22862
       O    12.18466    0.13034  -17.97448
      H1    13.00359    0.11951  -18.47442
       H     6.67915    0.37705  -19.47001
       O     5.79705    0.06561  -19.72896
      H1     5.19280    0.47985  -19.05911
       H     2.95676   -5.00404  -19.50355
       O     3.12905   -5.79456  -18.98058
      H1     3.50147   -6.41684  -19.62428
       H     4.00969    4.69632  -19.80298
       O     3.29168    4.65909  -19.11885
      H1     3.51309    5.49400  -18.64029
       H    10.01060   -1.69578  -19.37994
       O    10.31514   -1.80707  -18.43802
      H1    10.98151   -2.56245  -18.42323
       H     9.08472    0.04454  -17.22808
       O     8.89478    0.84297  -16.74721
      H1     8.54824    0.60475  -15.90177
       H     5.05373   -5.67684  -18.36620
       O     5.96144   -5.86794  -18.14565
      H1     6.37889   -5.19824  -18.74724
       H    11.26144   -3.92815  -15.27934
       O    11.77408   -4.73354  -15.42385
      H1    11.25179   -5.43153  -15.06174
       H     1.24817    2.75729  -14.52110
       O     1.93919    2.45036  -13.93587
      H1     1.56444    2.39009  -13.03439
       H     0.38755    3.69875  -18.06925
       O     0.35080    4.21116  -18.95928
      H1     1.30797    4.37603  -19.11369
       H    11.73843    5.36503  -16.41178
       O    12.36395    5.58215  -15.71568
      H1    13.18846    5.74606  -16.11078
       H     5.49955   -1.00204  -10.33597
       O     6.12232   -0.77976  -11.05434
      H1     5.60678   -0.27438  -11.71231
       H     6.54482    2.44565  -12.96163
       O     6.64204    1.70588  -13.57860
      H1     7.35027    1.14017  -13.31838
       H     9.69288    5.01975  -12.96361
       O     9.39041    5.89360  -12.70310
      H1     9.60142    6.55056  -13.38724
       H    10.45142   -3.10649  -11.94778
       O    10.55094   -3.41814  -12.83595
      H1    10.20599   -2.71381  -13.37725
       H     8.50066    4.28223  -15.21097
       O     9.06263    3.82685  -14.51462
      H1     8.49243    3.07901  -14.29359
       H    13.05602   -0.08856  -14.91590
       O    12.22742   -0.13377  -15.39807
      H1    12.26192   -0.17983  -16.38768
       H     1.31091   -1.99410  -15.80240
       O     1.75331   -2.20656  -16.66068
      H1     2.32855   -1.41883  -16.74812
       H     9.62581   -1.48078  -15.29986
       O    10.43582   -1.95133  -15.06962
      H1    11.10668   -1.31113  -15.09569
       H     4.12013    7.85609  -17.51511
       O     3.86224    6.87765  -17.41271
      H1     2.88537    6.91880  -17.43195
       H     6.11622    4.54570  -12.06637
       O     5.92953    3.70915  -11.61389
      H1     5.04907    3.34415  -11.79454
       H     4.14133   -3.01421  -13.84904
       O     4.93060   -3.07565  -14.37704
      H1     5.24232   -2.26333  -14.75647
       H     2.79315   -2.26794  -12.10234
       O     2.68986   -2.81285  -12.89638
      H1     2.16907   -3.59935  -12.62597
       H     9.07604    7.02638  -18.76981
       O     9.51993    6.69223  -18.00116
      H1    10.25613    6.20685  -18.35744
       H    -0.41182   -0.32128  -13.54953
       O    -1.03250    0.40003  -13.14634
      H1    -1.77131   -0.09997  -12.78377
       H     8.13328    2.28288  -11.10401
       O     8.82313    2.74639  -11.61880
      H1     9.00267    3.45380  -11.04704
       H     3.46985    0.74533  -11.83567
       O     3.37687   -0.13057  -12.22760
      H1     3.67199   -0.02762  -13.14527
       H     5.86079   -0.46235  -16.63009
       O     6.25380   -1.13314  -16.04571
      H1     6.90272   -1.64462  -16.53329
       H     5.25591   -8.94835  -17.25647
       O     5.90045   -8.64865  -17.96264
      H1     5.80698   -7.66003  -17.90994
       H     5.10539    1.33946  -14.46055
       O     4.26004    0.99949  -14.72204
      H1     3.50874    1.49252  -14.46750
       H     8.65242    5.43838  -17.44267
       O     8.07755    4.76167  -17.02485
      H1     7.43627    5.30398  -16.54871
       H    -0.43581    2.62267  -15.96213
       O     0.30333    3.13426  -16.25714
      H1     0.24442    4.00223  -15.77001
       H     1.12527   -2.36044  -13.77510
       O     0.44609   -1.84898  -14.25928
      H1    -0.34211   -2.47630  -14.21135
       H     8.12582   -1.25932  -13.28234
       O     8.46882   -0.37160  -13.45906
      H1     9.30427   -0.33244  -13.03909
       H    10.48709    2.22034  -16.22149
       O    11.10654    2.95935  -16.35667
      H1    10.73507    3.49372  -15.69184
       H     9.89832    1.19618  -11.50755
       O    10.41101    0.45918  -11.82506
      H1    11.09111    0.80622  -12.40673
       H    -1.31910    0.35979  -16.10713
       O    -1.53443    1.23396  -15.63770
      H1    -1.44405    0.89445  -14.72933
       H     0.11016   -1.16200  -17.33058
       O    -0.76536   -0.75114  -17.27222
      H1    -1.58375   -1.39784  -17.21213
       H     8.81115   -2.38730  -17.80676
       O     7.97091   -2.78852  -17.37688
      H1     8.32147   -3.53262  -16.86566
       H     9.21107   -5.09567  -19.57863
       O     9.71937   -5.81224  -19.17246
      H1    10.21303   -6.09916  -19.90464
       H     7.15167    3.74444  -18.13300
       O     6.27916    3.38018  -18.45575
      H1     5.67319    4.09409  -18.15929
       H     2.37438   -6.27891  -13.96313
       O     2.47711   -6.71057  -14.79395
      H1     2.94366   -6.05439  -15.33920
       H    -2.20837    6.20775  -18.88675
       O    -1.31027    6.44414  -19.18880
      H1    -0.77731    5.60664  -19.06878
       H     5.67936    6.44856  -15.86761
       O     5.64599    5.62915  -15.37292
      H1     6.02319    5.97321  -14.54452
       H     7.52183    6.03230  -12.60077
       O     6.60357    6.03441  -12.81694
      H1     6.11765    6.66047  -12.32761
       H     4.55073    1.18409  -16.48849
       O     4.75900    1.19217  -17.45007
      H1     5.19952    2.02862  -17.57757
       H     0.34153   -7.02204  -19.01932
       O     0.42813   -6.08252  -18.81965
      H1     1.39571   -6.12882  -18.66563
       H    14.68314   -1.74200  -18.55457
       O    14.67946   -1.16450  -19.32371
      H1    15.35491   -1.49903  -19.88152
       H    12.14054    1.64844  -14.16070
       O    12.30068    1.91382  -13.26305
      H1    12.42152    2.89638  -13.30538
       H    -0.17564   -3.62355  -17.12909
       O    -0.72219   -4.40583  -17.02564
      H1    -0.36068   -4.98602  -17.70746
       H     6.85680   -1.93448  -12.00076
       O     7.15084   -2.75035  -12.53734
      H1     6.35363   -3.03066  -13.10380
       H     3.34824   -3.48412  -16.69014
       O     4.22076   -3.77180  -17.03250
      H1     4.82193   -3.79330  -16.28737
       H    10.93842   -4.51188  -18.07760
       O    11.86500   -4.22578  -18.02107
      H1    11.96443   -4.50694  -17.10580
       H     2.79127    4.43539  -13.74840
       O     3.04522    5.39377  -13.63121
      H1     3.80762    5.51117  -14.23222
       H     7.34811   -3.42901  -18.81467
       O     7.22097   -4.04030  -19.55689
      H1     6.51510   -3.67563  -20.08630

