180
frame 11 | Written by MDAnalysis XYZWriter (release 2.4.3)
       H    -5.71686   -7.30206   -9.79675
       O    -6.13586   -6.43224   -9.80452
      H1    -6.53418   -6.32178   -8.92829
       H    -7.40801   -7.23143   -6.34340
       O    -8.00360   -7.90642   -5.99005
      H1    -7.45775   -8.69072   -6.07688
       H    -9.97558   -3.78054   -5.05897
       O   -10.95871   -3.89744   -5.07398
      H1   -11.01062   -4.82096   -5.37673
       H   -15.37737  -12.68352   -8.62653
       O   -16.20476  -12.85846   -8.04439
      H1   -16.07215  -13.79272   -7.75052
       H   -12.57041  -15.10997  -14.11119
       O   -12.26955  -15.69386  -14.85865
      H1   -12.82419  -16.45342  -14.64263
       H   -13.37513   -7.25734  -12.17810
       O   -12.85106   -8.06324  -12.27668
      H1   -12.62393   -8.06678  -13.18253
       H    -9.43528   -6.20405   -8.85849
       O    -9.23090   -5.29696   -9.10425
      H1    -9.84477   -5.18297   -9.86668
       H    -9.30472  -12.05827  -12.25518
       O    -8.73349  -11.45273  -12.81726
      H1    -8.32532  -12.12456  -13.33311
       H   -13.44365   -3.70844   -9.11228
       O   -12.96881   -2.86792   -9.11967
      H1   -12.63795   -2.69348   -8.22483
       H    -9.13245   -6.61876  -13.46186
       O    -9.47355   -7.12782  -12.67537
      H1   -10.02114   -7.74551  -13.22438
       H   -11.57110   -6.82283  -10.99858
       O   -11.56029   -5.87563  -10.66273
      H1   -12.32699   -5.76816  -10.13911
       H   -13.59463  -11.69002   -8.59985
       O   -13.63991  -12.55846   -9.04622
      H1   -12.88992  -12.97517   -8.59349
       H   -15.39858   -4.91007   -8.33069
       O   -16.20972   -4.61751   -7.87219
      H1   -15.97301   -3.79310   -7.59320
       H    -9.55354   -5.28907  -12.09077
       O    -9.08934   -4.47219  -11.97052
      H1    -8.79619   -4.48310  -11.02830
       H   -10.82776   -6.05534   -6.92287
       O   -11.59855   -6.21988   -6.28049
      H1   -11.24262   -6.85792   -5.60062
       H   -17.62432   -8.18778   -9.58857
       O   -18.43158   -8.14932  -10.10113
      H1   -18.71022   -9.10444  -10.06664
       H   -10.87896  -17.11244   -9.55801
       O   -10.22496  -16.52663  -10.05123
      H1   -10.05114  -15.75383   -9.46314
       H    -7.36780   -4.88148  -12.17597
       O    -6.58560   -5.50834  -12.29896
      H1    -6.49560   -5.80437  -11.36855
       H   -11.56074   -2.79282  -10.41831
       O   -11.22825   -2.82144  -11.30695
      H1   -10.49931   -3.44953  -11.42707
       H    -9.29925  -10.31698   -5.67372
       O   -10.04414  -10.42382   -6.28948
      H1   -10.66062  -10.84723   -5.60413
       H   -13.68014   -8.95032   -3.68777
       O   -13.54945   -9.05263   -4.66489
      H1   -14.28605   -8.45227   -4.89897
       H    -7.73672   -8.39010  -12.54303
       O    -7.28430   -9.23462  -12.52931
      H1    -8.01885   -9.85719  -12.76620
       H   -16.78578  -12.89219  -13.38273
       O   -16.62688  -12.92421  -12.41258
      H1   -15.73870  -13.28835  -12.39061
       H    -9.96646  -14.45010   -4.88354
       O   -10.09329  -13.84089   -5.58942
      H1   -10.19780  -13.04868   -5.11293
       H   -14.30477  -11.22145  -15.20364
       O   -14.44842  -10.34266  -14.78151
      H1   -15.17563  -10.65590  -14.21973
       H   -17.77129  -10.29216   -6.31683
       O   -17.11240   -9.93052   -5.64321
      H1   -17.66595   -9.99047   -4.77006
       H   -13.11921  -11.04917  -11.61404
       O   -13.15013  -11.15327  -12.57665
      H1   -13.53284  -10.21562  -12.75662
       H   -17.12573   -7.86152  -12.06131
       O   -17.34346   -6.91506  -12.17907
      H1   -17.97794   -6.87218  -11.41981
       H   -15.60448   -8.02895   -8.84652
       O   -16.36636   -7.55577   -8.48364
      H1   -16.13706   -7.48160   -7.57430
       H   -12.97939   -9.23452   -8.83972
       O   -12.74693   -9.89764   -9.48456
      H1   -11.87053   -9.64799   -9.78928
       H   -14.54672   -8.19922  -11.31409
       O   -14.99882   -8.72283  -10.67291
      H1   -14.25284   -9.24468  -10.30047
       H    -8.24103  -11.07024   -8.08744
       O    -8.54230  -11.35584   -8.95633
      H1    -7.69475  -11.25628   -9.52190
       H    -8.02299  -13.22703   -8.60708
       O    -8.47054  -14.04020   -8.37469
      H1    -9.22497  -13.70386   -7.80596
       H    -6.76726  -11.85190  -11.72615
       O    -6.49419  -11.86127  -10.83309
      H1    -5.60433  -11.48352  -10.95138
       H   -11.59926  -11.77718   -3.38584
       O   -11.33530  -11.81209   -4.29618
      H1   -12.06445  -11.34534   -4.67797
       H   -17.69256  -13.45255   -9.40405
       O   -18.34343  -13.36935  -10.13001
      H1   -18.67230  -12.46871   -9.91097
       H   -12.02885  -11.28465  -13.75175
       O   -11.20514  -11.37909  -14.31056
      H1   -10.44232  -11.54414  -13.70536
       H    -6.23889  -10.28759   -6.94719
       O    -7.08364  -10.52133   -6.56504
      H1    -6.93681  -11.32740   -6.08182
       H    -8.39385  -15.70031  -11.86028
       O    -8.04836  -14.95292  -11.35248
      H1    -7.67260  -15.46464  -10.59171
       H   -11.74389   -8.55324   -4.44543
       O   -11.01895   -7.94158   -4.39810
      H1   -10.39072   -8.28176   -4.97090
       H   -13.03596  -13.22526  -12.58569
       O   -12.59893  -13.99707  -12.80939
      H1   -11.80851  -13.90519  -12.27545
       H    -7.12744   -3.45351   -7.88828
       O    -8.05929   -3.25696   -8.15434
      H1    -8.37031   -4.03070   -8.65327
       H   -12.73046  -13.60440   -4.93049
       O   -13.48217  -14.21022   -4.81619
      H1   -14.16612  -13.57754   -4.51301
       H    -9.65175   -9.31435  -10.86392
       O   -10.19267   -9.63267  -10.17099
      H1    -9.59434  -10.30231   -9.85243
       H   -13.09401   -8.77203  -16.23359
       O   -13.18927   -9.09628  -17.17428
      H1   -13.57481   -9.93785  -16.90224
       H    -9.98803   -8.54290   -8.60251
       O    -9.89398   -7.82389   -7.91654
      H1    -9.50861   -8.17883   -7.13481
       H    -9.86923  -14.42307  -10.86100
       O   -10.52267  -13.73152  -11.04733
      H1   -10.77851  -13.37639  -10.19201
       H   -16.34376   -9.61801  -11.96373
       O   -16.81955   -9.48992  -12.77402
      H1   -17.36640  -10.22915  -12.96710
       H   -12.60211   -7.21924   -7.09687
       O   -13.25758   -7.68925   -7.64165
      H1   -13.90886   -7.77032   -6.90771
       H   -13.91588  -16.73897  -11.34419
       O   -12.98978  -16.89807  -11.52429
      H1   -12.60822  -16.13610  -11.07473
       H    -4.87605   -8.33589  -11.22394
       O    -4.95768   -8.75663  -10.35933
      H1    -4.15674   -8.42205   -9.89501
       H   -11.31926  -12.88407  -15.89986
       O   -11.66519  -13.34670  -16.72027
      H1   -11.91129  -14.18134  -16.27179
       H   -13.77597  -11.83657   -6.12142
       O   -13.12657  -11.17246   -6.25929
      H1   -13.51284  -10.35039   -5.96317
       H   -12.33463   -5.57617  -16.45999
       O   -12.38005   -5.66329  -15.46246
      H1   -11.52863   -6.12179  -15.35851
       H   -14.28192   -5.81336   -9.97033
       O   -13.76164   -5.52032   -9.23569
      H1   -13.72890   -6.35955   -8.71913
       H   -15.74297   -6.95237   -5.44864
       O   -15.45029   -7.67994   -5.99670
      H1   -16.20439   -8.33321   -5.86577
       H   -15.73448   -6.29909  -12.13438
       O   -14.77209   -5.99233  -11.85106
      H1   -14.66215   -5.17672  -12.40331
       H   -12.13465  -15.41003   -7.52953
       O   -11.74682  -14.54464   -7.65575
      H1   -11.06495  -14.47620   -6.92884
       H   -15.32067  -11.49512   -4.85260
       O   -15.51483  -12.42397   -4.98324
      H1   -16.22146  -12.33342   -5.62364
       H   -10.92638   -9.49662  -14.92951
       O   -10.75967   -8.52710  -14.87814
      H1   -10.47316   -8.29643  -15.74447

