180
frame 6 | Written by MDAnalysis XYZWriter (release 2.4.3)
       H     8.07253    8.37020    1.15612
       O     8.12046    8.68484    2.04012
      H1     8.71617    9.42896    1.97178
       H     6.77436   16.58229    3.42022
       O     6.70177   15.63546    3.35633
      H1     7.59166   15.38893    3.56431
       H     8.90431    8.72670    6.19798
       O     9.56974    8.15221    6.55672
      H1     9.32829    8.10401    7.44573
       H     6.12418   12.13281   -2.11543
       O     6.97918   11.77218   -2.11101
      H1     7.07237   11.69874   -3.02401
       H    10.65465   17.98364    1.05502
       O    10.31017   17.09146    1.21957
      H1     9.47503   17.15918    1.72429
       H     8.61537   12.21961    1.83786
       O     8.00473   11.67050    1.38997
      H1     7.35829   12.32334    1.20611
       H     2.88950   14.44177    1.38514
       O     2.58719   13.64488    1.84429
      H1     3.06817   13.75371    2.66596
       H     1.75974    8.22436    1.64437
       O     1.51598    8.93345    2.28817
      H1     0.55918    8.85682    2.26133
       H    -0.34862   13.36031    3.05228
       O    -0.03861   12.85534    3.80542
      H1    -0.85863   12.37913    4.15887
       H     4.03040   11.55249   -1.58701
       O     4.02547   11.76370   -2.54623
      H1     3.47948   11.03138   -2.88939
       H    11.27569   11.84700   -0.63697
       O    12.09335   11.30887   -0.79842
      H1    12.82257   11.97580   -0.65519
       H     6.25022    5.63543    0.06784
       O     6.26218    5.53260    1.05305
      H1     5.40417    5.08581    1.16450
       H     5.94255    9.72378   -0.11045
       O     6.04492    9.32033   -1.03088
      H1     6.38944   10.15182   -1.52373
       H     9.35900   14.61737   -0.36002
       O     8.95379   15.47927   -0.30605
      H1     9.64269   16.05554    0.15697
       H     4.37793   11.04135    1.21773
       O     3.95747   11.56631    0.50272
      H1     3.58052   12.32534    0.93660
       H     2.78410   12.95559   -1.98081
       O     1.98286   13.33439   -1.58577
      H1     1.56864   12.45373   -1.32665
       H     8.73971   13.90632    4.23136
       O     9.46787   13.96247    3.57646
      H1    10.15024   14.46410    4.02497
       H    -0.34552    9.65551    7.45929
       O    -0.66572   10.34775    6.88355
      H1     0.21113   10.76181    6.71145
       H     5.83806   10.39834    8.62655
       O     5.44882    9.80095    7.92613
      H1     5.21663   10.23107    7.12230
       H     4.38947   17.39919    1.20630
       O     4.53797   18.39716    1.17367
      H1     5.06506   18.52885    0.35449
       H    10.37579   10.86393    2.45396
       O     9.89493   10.68612    3.26257
      H1    10.40430   10.06664    3.80385
       H     7.42688    7.46291    3.17349
       O     6.88530    6.71230    3.49573
      H1     6.61437    6.24664    2.75772
       H     2.41942   12.95965    6.93068
       O     2.26992   12.11278    7.24669
      H1     1.87412   12.11294    8.11236
       H     9.56025   14.38484    7.96745
       O     9.78078   15.29390    8.09047
      H1     9.13597   15.66131    7.46752
       H     8.61228   18.56010    3.07848
       O     7.84223   18.18875    2.63042
      H1     7.61384   18.91697    2.08311
       H     9.12776   12.51807   -0.01715
       O     9.80153   12.74481   -0.63886
      H1     9.49801   12.35077   -1.44170
       H     3.18844    6.87811    0.79329
       O     2.42544    6.37691    1.12966
      H1     2.91512    5.78832    1.70353
       H     7.84490   17.11413    6.61610
       O     8.26018   16.40658    6.04252
      H1     7.48441   15.81782    5.99986
       H    10.47983    6.69616    1.59255
       O    10.42927    7.41766    2.26277
      H1     9.53453    7.85124    2.08086
       H     6.09263   14.11605    6.13116
       O     5.57091   14.76216    6.61027
      H1     4.97886   14.87884    5.86667
       H     9.65924   12.22604    8.14918
       O     8.95896   12.70657    7.63770
      H1     8.17519   12.34273    7.99825
       H     5.43739   14.98072   -2.85962
       O     6.36373   15.07948   -2.52080
      H1     6.54296   14.12803   -2.28884
       H     1.58038    5.85862    4.51061
       O     2.10303    5.89883    5.30543
      H1     2.07551    6.81608    5.58879
       H     9.98327   15.65258    5.66297
       O    10.84408   15.80182    5.24299
      H1    11.49384   15.23557    5.68298
       H    12.78488   12.36310    2.15779
       O    13.78050   12.31769    2.34639
      H1    13.88700   11.36248    2.34811
       H     7.87616   12.81269    5.72601
       O     7.57303   13.51266    5.14716
      H1     7.10197   12.97541    4.45997
       H     3.39123   11.17697    5.71087
       O     4.00721   10.52870    5.41619
      H1     3.61056   10.17898    4.56022
       H     3.48266   15.97047   -0.17681
       O     3.97350   15.78965    0.59796
      H1     4.87558   15.70843    0.23352
       H     6.59795    9.48614    1.70488
       O     5.66152    9.63066    1.63721
      H1     5.26579    8.95665    2.24859
       H    10.56146   12.84612    2.68970
       O    11.02241   12.73443    1.82936
      H1    11.27366   13.66844    1.75267
       H     5.17203    7.11955    7.05805
       O     4.26988    6.92068    7.46257
      H1     4.28229    5.96183    7.35836
       H     6.38399   12.02718   10.12947
       O     6.33981   12.16670    9.19328
      H1     5.67761   12.86927    9.04289
       H     1.98063   17.29947    6.08548
       O     2.82261   16.99646    5.79970
      H1     3.26173   17.71161    5.29224
       H    10.71455    8.60414    5.35840
       O    11.29271    9.09454    4.67426
      H1    11.28066    8.38497    3.96503
       H     4.58115   14.36053    8.01581
       O     4.29987   14.20594    8.93498
      H1     3.75131   13.44268    8.88788
       H     9.37852    7.94995   -1.03138
       O     8.58383    7.63200   -0.60272
      H1     7.87320    8.20851   -0.85270
       H     3.74134    8.66278   -1.14956
       O     2.98921    8.01911   -1.16880
      H1     3.33395    7.42547   -1.89187
       H     6.55018   14.58368    1.64561
       O     6.97266   14.12245    0.86267
      H1     7.65538   14.82693    0.67341
       H     3.50082   15.54737    4.81047
       O     3.89377   14.76561    4.40227
      H1     4.77271   15.11799    4.11058
       H    11.97213   12.33375    6.51745
       O    11.57487   13.17955    6.36478
      H1    12.18038   13.68493    6.90460
       H     6.46126    8.43570    8.75563
       O     6.96798    7.64729    9.06536
      H1     6.25726    7.10056    9.41451
       H     2.92827    9.10512    6.23115
       O     2.04884    8.66198    6.10326
      H1     1.78317    9.19926    5.31622
       H     4.78561    7.62530    3.91846
       O     4.15784    8.16570    3.43919
      H1     3.31465    7.73293    3.43239
       H     3.78750    5.46550    5.04123
       O     4.66303    5.04040    4.77300
      H1     5.26127    5.05348    5.54095
       H     1.56650    9.98014    3.52158
       O     1.43925   10.54423    4.35145
      H1     0.97308   11.27350    3.96389
       H     8.29516    5.32443    6.08414
       O     7.45069    5.05753    5.67408
      H1     7.34047    5.75264    4.92369
       H    -0.11655   14.95830    1.91702
       O    -0.26946   14.16328    1.37311
      H1     0.64006   13.93834    1.23083
       H     8.80072   10.87953    5.32225
       O     8.06129   10.57939    5.84316
      H1     8.18679   10.70019    6.73448
       H     5.97714   11.63009    3.05888
       O     5.77496   12.57753    3.26032
      H1     4.89056   12.46181    3.68955
       H     6.95921   18.00834   -1.47635
       O     6.35757   17.37390   -1.03901
      H1     6.47947   16.63635   -1.64311

