180
frame 1 | Written by MDAnalysis XYZWriter (release 2.4.3)
       H    -0.92197  -12.77017   17.64890
       O    -0.09340  -12.40166   17.29350
      H1    -0.27601  -11.51028   16.90619
       H     4.00923  -11.14532   10.69982
       O     3.23629  -10.68937   11.11292
      H1     2.91646  -11.19543   11.84868
       H    -1.11106   -8.58534   15.63685
       O    -1.48377   -7.64774   15.81661
      H1    -0.77739   -7.09760   15.36340
       H    -6.52775  -13.01674    8.28301
       O    -5.95719  -13.63173    7.82993
      H1    -5.00463  -13.40758    8.03651
       H    -9.31404  -11.93948    8.58908
       O    -8.60186  -12.55695    8.33759
      H1    -8.79336  -12.66558    7.36894
       H    -0.07843   -8.17712    9.46247
       O    -0.12254   -8.89063   10.12291
      H1     0.37613   -9.60917    9.71312
       H     2.11650  -14.65508    7.27897
       O     1.22147  -14.29188    7.15669
      H1     1.24750  -14.01177    6.21989
       H    -3.24311  -11.78144    6.55058
       O    -3.57135  -11.13512    5.91392
      H1    -2.97255  -10.39892    5.90478
       H    -0.77262  -15.67040    8.58047
       O    -0.97113  -15.87743    7.69339
      H1    -0.38348  -15.30641    7.21211
       H    -8.18055  -11.83184   14.18905
       O    -7.65990  -11.00987   14.35685
      H1    -7.08165  -10.91214   13.60418
       H    -7.99490   -7.81258   10.02674
       O    -7.39002   -7.30647   10.54648
      H1    -6.58063   -7.30779   10.02643
       H    -5.61447  -15.94143    9.19763
       O    -6.49204  -16.34008    9.38339
      H1    -7.04529  -16.28455    8.58870
       H     5.02025  -10.77386    7.44684
       O     4.32971  -11.15074    7.96451
      H1     3.59511  -10.55604    7.90042
       H     0.56853  -18.29819   10.29033
       O     0.12042  -17.88186   11.04183
      H1    -0.17079  -18.65342   11.54200
       H    -6.47227  -13.05724   10.97168
       O    -6.93064  -13.86246   11.09310
      H1    -6.54417  -14.28511   10.32896
       H    -0.48727  -17.43236    7.38425
       O    -0.22986  -18.29282    6.91280
      H1    -0.50646  -18.14403    5.97046
       H    -2.61797   -7.72115    5.96663
       O    -2.71630   -7.90130    5.04345
      H1    -2.13911   -7.23860    4.59539
       H     1.54424  -17.56388   12.64098
       O     1.72055  -18.10658   13.45095
      H1     0.93355  -18.68704   13.36270
       H    -5.91977  -14.54901   12.65408
       O    -5.50987  -15.04550   13.40839
      H1    -5.34791  -14.30377   14.02334
       H    -7.02036   -8.58110   11.50572
       O    -6.70799   -9.38132   12.06565
      H1    -5.93445   -8.92434   12.41121
       H    -3.07271   -8.75039   15.92609
       O    -3.71003   -9.47401   15.74641
      H1    -4.49031   -9.07963   16.18498
       H    -0.92155   -6.66467    6.73885
       O    -1.72202   -6.61326    7.30994
      H1    -2.17615   -5.78897    7.07946
       H    -4.65851  -13.03637   17.29776
       O    -4.50356  -12.87295   16.33036
      H1    -4.90860  -11.94903   16.34026
       H    -4.31460  -16.68994   10.76221
       O    -3.65260  -16.62669   10.05263
      H1    -3.46089  -17.53944    9.83907
       H     1.25769   -9.03821    7.49003
       O     0.68478   -8.44193    6.90375
      H1     1.01526   -8.68176    6.02408
       H    -1.92182  -18.85604    7.71575
       O    -2.64324  -18.62879    8.37191
      H1    -3.36122  -19.26229    8.01979
       H    -4.75326   -9.49305    8.41016
       O    -5.74515   -9.57789    8.29690
      H1    -5.95047  -10.38349    8.78567
       H    -3.98768  -11.52627   12.23399
       O    -3.57483  -11.81452   11.44178
      H1    -3.24626  -10.97335   11.12078
       H    -2.81659  -10.24989    8.00611
       O    -3.06683   -9.92019    8.91842
      H1    -2.35302   -9.28075    9.06752
       H    -0.56317  -11.16305    7.30131
       O    -1.11439  -10.44570    6.95478
      H1    -0.47399   -9.74862    6.94607
       H    -2.47708  -13.06644    8.44483
       O    -3.13006  -13.02958    7.72699
      H1    -3.11450  -13.96075    7.42861
       H    -1.20950  -13.77662   10.34265
       O    -1.44798  -12.87102   10.00943
      H1    -2.19522  -12.67714   10.60362
       H    -2.10765  -15.87234   10.33855
       O    -1.17133  -15.70346   10.50532
      H1    -0.84292  -16.61716   10.66266
       H    -4.41518  -17.40855    6.92473
       O    -5.10773  -17.99481    6.52911
      H1    -5.92201  -17.40214    6.60490
       H     1.64840  -11.52818   13.23779
       O     2.44632  -11.67169   13.75433
      H1     2.27224  -12.48757   14.20909
       H     0.53742   -6.99498   12.64478
       O     1.10668   -6.99474   11.83978
      H1     0.87621   -7.86562   11.49190
       H    -0.52443  -13.91955    4.82311
       O    -0.02817  -13.09995    4.88263
      H1     0.43215  -12.88422    4.03521
       H     3.51873   -7.76656   13.52723
       O     3.64228   -8.73799   13.35875
      H1     3.18240   -8.89837   12.52375
       H     0.84490  -14.81983   14.73916
       O     0.95660  -14.29775   13.95228
      H1     0.04370  -14.33375   13.54578
       H     5.13390  -14.94113   10.65129
       O     4.44427  -14.43168   10.25239
      H1     3.72258  -14.96489   10.64704
       H    -0.30844  -10.04308   11.95423
       O     0.14024  -10.80172   12.39320
      H1    -0.40353  -11.54631   12.43487
       H    -3.51297  -15.60234   14.82131
       O    -2.59764  -16.02659   14.81265
      H1    -2.35496  -16.02419   15.78571
       H    -0.22321   -5.72451    9.50151
       O    -1.00822   -6.16079    9.74526
      H1    -1.40285   -6.15248    8.79603
       H    -2.74677  -15.98649    7.30262
       O    -3.46237  -15.61415    6.75254
      H1    -3.06402  -15.55546    5.85225
       H    -3.03619  -12.17784   14.99872
       O    -2.45175  -12.08854   14.21534
      H1    -2.24583  -13.02330   14.00571
       H    -3.55949   -8.60215   12.49699
       O    -4.07094   -9.29550   12.99722
      H1    -3.76411   -9.03273   13.93408
       H    -1.26926  -11.00472   15.00395
       O    -0.74038  -10.36646   15.51201
      H1     0.09110  -10.31756   14.94841
       H    -5.20728  -11.94324    5.76064
       O    -5.98121  -12.41798    5.41812
      H1    -6.10426  -13.12134    6.12116
       H    -0.04238  -12.04627    9.10948
       O     0.69008  -11.78273    8.52340
      H1     0.82005  -12.57200    7.98716
       H   -10.11752  -14.14993   11.10929
       O    -9.50255  -14.91348   11.33336
      H1    -8.60282  -14.57603   11.17244
       H    -2.65274  -17.56710   14.28591
       O    -2.91856  -18.41344   13.88263
      H1    -3.71770  -18.18952   13.36821
       H    -3.62337  -12.20179    4.14269
       O    -3.47087  -12.62479    3.29108
      H1    -4.24392  -13.24085    3.32698
       H    -3.93921   -6.87559   10.42332
       O    -4.60938   -6.49890    9.81308
      H1    -4.76933   -5.55571   10.03799
       H     1.89251  -15.12693   12.71411
       O     2.37641  -15.57613   12.01941
      H1     3.29498  -15.32438   12.26370
       H    -5.71208  -16.91827   12.73922
       O    -5.35783  -17.80279   12.60340
      H1    -6.09297  -18.30279   12.27210
       H    -2.07773  -16.21417    3.87421
       O    -1.75256  -15.37728    4.20149
      H1    -2.14997  -14.75619    3.57649
       H    -1.90428  -15.17350   13.53171
       O    -1.43984  -14.49244   13.01285
      H1    -1.46312  -14.91488   12.10897
       H    -4.97412  -11.43611   10.54277
       O    -5.93701  -11.29733   10.20767
      H1    -6.15947  -10.55120   10.80081
       H    -2.05236   -7.29598   10.88718
       O    -2.62913   -7.59658   11.60260
      H1    -2.68123   -6.88006   12.24904
       H     2.45723   -9.76855    9.50819
       O     2.51188   -9.15911    8.73927
      H1     3.09580   -8.42114    9.07782

