180
frame 11 | Written by MDAnalysis XYZWriter (release 2.4.3)
       H     6.33278   -5.12474  -13.08929
       O     7.11583   -4.97996  -12.59989
      H1     7.13531   -5.50663  -11.77281
       H     8.65265   -4.53389  -15.16860
       O     8.04370   -3.96524  -15.71964
      H1     7.36813   -3.58221  -15.18908
       H    13.70547    0.96049  -14.91683
       O    14.27830    0.43998  -15.50833
      H1    15.18688    0.78519  -15.37260
       H    13.91858    1.83657  -18.69354
       O    14.35406    2.01716  -17.81066
      H1    14.22765    1.22354  -17.21514
       H    13.37317   -7.63513   -8.28345
       O    13.39360   -8.30554   -7.57398
      H1    14.35360   -8.44795   -7.38999
       H    12.35534   -0.24929  -10.65925
       O    11.61449    0.28265  -10.34578
      H1    11.63172    1.14843  -10.79317
       H    13.13810    0.20012   -7.15363
       O    13.25908    0.13489   -8.12960
      H1    12.40070    0.02859   -8.51109
       H    13.01923    4.08227  -11.37339
       O    13.97649    4.31302  -11.45556
      H1    14.24597    4.05310  -12.35245
       H    17.40396   -4.06430  -11.93871
       O    17.10807   -4.93206  -12.24082
      H1    16.88090   -5.47854  -11.46906
       H    10.91119    0.28847  -17.82195
       O    11.12943   -0.15915  -16.96698
      H1    10.64152   -1.00234  -16.92046
       H    15.81686   -5.73730  -13.46955
       O    15.16339   -5.96242  -14.14446
      H1    14.32309   -6.07472  -13.75018
       H    11.03526   -6.56087  -16.84260
       O    10.63145   -6.90430  -17.62978
      H1     9.96187   -6.32595  -17.97498
       H    17.35433    0.39687  -14.79297
       O    16.92712    1.11979  -15.27346
      H1    17.00121    0.88691  -16.20925
       H     9.93069    0.72469   -7.24884
       O     9.93739   -0.02188   -7.97615
      H1     9.41153    0.26053   -8.72452
       H    19.46506   -1.33460   -8.91420
       O    19.54203   -0.81348   -8.08715
      H1    18.72891   -0.86302   -7.50775
       H    11.03192   -3.99633  -11.03814
       O    10.88937   -4.48282  -11.83788
      H1    11.02136   -3.86510  -12.51760
       H     9.85314    0.97822  -15.98314
       O     9.11090    1.48422  -15.67987
      H1     9.09480    1.36436  -14.73990
       H    14.38085   -1.49935  -17.31274
       O    13.76744   -1.01747  -17.93038
      H1    12.98265   -0.70973  -17.42890
       H    15.69105   -4.05477  -13.93314
       O    15.98512   -3.17363  -14.04860
      H1    16.17816   -2.98407  -14.98268
       H    10.39204   -1.99764  -13.04627
       O    10.93660   -2.52323  -13.69111
      H1    11.83018   -2.23659  -13.61505
       H    19.08250   -0.17416  -13.79591
       O    18.27864   -0.67396  -13.88543
      H1    18.60087   -1.29475  -14.53567
       H     6.54026   -3.28060  -13.02824
       O     6.54716   -2.57319  -13.69647
      H1     5.67956   -2.64168  -14.22743
       H     7.85227   -2.95435   -8.63304
       O     7.44449   -3.50123   -9.31062
      H1     7.30171   -2.82190   -9.99914
       H    13.43935   -1.81301  -12.27459
       O    13.23136   -1.65398  -11.30159
      H1    12.69886   -2.37654  -10.92529
       H    16.71121   -3.98003  -19.38927
       O    15.78587   -3.66606  -19.34370
      H1    15.66993   -3.38711  -18.38805
       H    16.12328   -4.00016  -16.80740
       O    16.30706   -3.00597  -16.80073
      H1    17.13923   -2.81101  -17.32130
       H    18.02178   -1.74600  -12.55321
       O    18.05166   -2.25178  -11.67798
      H1    17.14660   -2.30296  -11.34567
       H    19.52274    0.89795   -8.91316
       O    19.77283    1.66651   -9.42518
      H1    18.99067    1.71992   -9.98899
       H     9.10794    2.94713  -10.66712
       O     9.13656    3.54880  -11.44492
      H1     8.43842    4.15381  -11.38178
       H    15.98610   -1.95429   -9.63271
       O    15.67815   -1.83470  -10.58394
      H1    14.72418   -1.68570  -10.63189
       H     7.11104    0.86187   -9.37076
       O     7.84624    1.49159   -9.37249
      H1     7.41475    2.23769   -8.84361
       H    16.94178    4.68648  -15.19893
       O    17.08342    3.98443  -14.52863
      H1    17.09099    3.12640  -14.97247
       H    13.18274    2.63270  -14.51271
       O    12.96921    1.97722  -13.82583
      H1    13.77479    1.94564  -13.34552
       H    12.08657   -4.93855   -7.73948
       O    12.86300   -4.94037   -8.27260
      H1    13.41860   -4.25825   -7.82163
       H    12.82738   -2.60007   -6.31697
       O    13.54390   -2.67765   -6.91117
      H1    13.74233   -1.84336   -7.41263
       H     8.37880    0.90778  -12.87547
       O     7.79550    1.59787  -13.16057
      H1     8.22692    2.44553  -12.85510
       H    17.29281    2.93597  -11.23485
       O    17.53704    2.03484  -11.51132
      H1    16.75182    1.65803  -11.91909
       H    13.84949    3.29906  -16.49185
       O    13.29169    3.63017  -15.80244
      H1    12.43448    3.38143  -16.18291
       H    10.28178   -0.05924  -11.40981
       O     9.66696   -0.18849  -12.20057
      H1     8.83610   -0.55345  -11.85087
       H     8.95958   -1.46694   -7.72765
       O     8.68148   -2.32104   -7.39579
      H1     8.33446   -2.11380   -6.51586
       H    11.70085   -3.45673   -8.78296
       O    11.16567   -2.88721   -9.39992
      H1    11.22363   -2.00441   -8.97319
       H    15.91536   -8.33307  -11.07215
       O    16.23140   -7.44484  -10.82711
      H1    16.25965   -7.53033   -9.83358
       H    10.60089   -2.76399  -15.37194
       O    10.50732   -3.01372  -16.26858
      H1     9.62432   -3.40001  -16.38527
       H    12.47459   -6.33205  -13.20817
       O    12.28622   -5.96807  -14.10286
      H1    12.52344   -6.77503  -14.55546
       H    19.48786   -4.96036   -8.93958
       O    18.55700   -5.19709   -8.69833
      H1    18.53288   -6.08673   -9.04999
       H    15.22634   -2.93572   -5.95940
       O    16.20300   -2.86236   -5.76678
      H1    16.35539   -3.45387   -4.99758
       H    10.26533   -5.58007  -13.59813
       O     9.39176   -5.70225  -14.12294
      H1     8.80749   -5.16874  -13.54492
       H    13.72850   -8.53271  -11.77661
       O    13.25131   -7.64815  -11.90948
      H1    13.72588   -7.07628  -11.21611
       H    18.36258   -4.86012  -13.84453
       O    19.23566   -5.16900  -14.17406
      H1    19.08021   -5.83014  -14.81881
       H    15.77815    1.98934   -8.36902
       O    16.06969    2.10917   -7.38788
      H1    16.72171    1.41284   -7.15993
       H    15.54291   -0.11076  -11.96733
       O    15.21642    0.73317  -12.32056
      H1    14.77404    1.17943  -11.60734
       H    14.63312   -2.33715  -13.86792
       O    13.75630   -1.87420  -13.92904
      H1    13.89489   -1.03088  -14.46772
       H    11.90106    2.52408  -12.51259
       O    11.66010    2.82193  -11.62779
      H1    10.71910    3.16026  -11.74704
       H    13.76314    1.79946   -9.43449
       O    14.62196    2.05973   -9.90868
      H1    14.38742    2.93176  -10.22171
       H     6.64576   -0.78638  -10.77058
       O     7.29474   -1.30862  -11.22550
      H1     6.96514   -1.53490  -12.07173
       H    11.71778   -3.52128  -17.57513
       O    12.09917   -3.24495  -18.41173
      H1    12.62833   -2.46488  -18.13487
       H     9.43521   -5.58685  -11.03825
       O     8.86778   -5.78396  -10.24169
      H1     8.58639   -4.87752   -9.98662
       H    16.79625   -2.53436   -7.40426
       O    17.09184   -2.54439   -8.29092
      H1    17.57682   -3.43982   -8.36111
       H    16.32907   -4.58852   -6.71240
       O    16.20588   -5.54643   -6.58184
      H1    15.46415   -5.83303   -7.12877
       H    14.74970   -5.71061  -17.01060
       O    15.64199   -5.54601  -16.70798
      H1    15.44157   -5.69735  -15.70333

