180
frame 2 | Written by MDAnalysis XYZWriter (release 2.4.3)
       H    18.56714   -9.18164   16.49131
       O    19.44533   -9.24041   16.75644
      H1    19.85239   -9.84201   16.09565
       H    14.43141   -0.62321   18.89029
       O    14.62030    0.27803   19.33976
      H1    15.41823    0.15592   19.87806
       H    14.95954    0.33957   12.44352
       O    14.92096   -0.44336   13.03650
      H1    15.59947   -0.21619   13.68987
       H    11.68862  -12.58014   18.88519
       O    11.37932  -11.73074   19.16992
      H1    12.15318  -11.49320   19.75720
       H    13.06937    0.75996   16.51275
       O    12.39886    1.20831   16.01588
      H1    11.59667    1.37656   16.56186
       H     9.94676   -2.85152   15.71468
       O     9.06550   -2.93102   16.14071
      H1     9.23293   -3.84124   16.53255
       H    18.87832  -14.70839   11.70177
       O    18.76744  -13.78120   11.48395
      H1    19.00308  -13.37237   12.34681
       H    10.94138   -4.38276   14.69854
       O    11.56699   -3.88212   15.19830
      H1    12.11670   -4.54648   15.68933
       H    18.55706   -9.50143   11.48308
       O    19.47781   -9.38061   11.74654
      H1    19.87146   -8.79275   11.04831
       H    15.16242  -13.22804   12.74545
       O    15.37769  -14.04967   12.23650
      H1    15.49305  -13.62637   11.35491
       H    15.78258   -8.93639   19.11808
       O    15.33842   -8.80493   18.27995
      H1    16.04778   -8.43810   17.69277
       H     9.16876   -2.13092   20.17041
       O     8.98258   -2.03801   19.21276
      H1     9.65462   -2.62100   18.78334
       H    17.70778  -13.32479   17.72687
       O    17.95024  -13.78169   18.51915
      H1    18.34352  -13.17014   19.08230
       H    15.84668    3.43804   17.48973
       O    16.18082    4.38273   17.64635
      H1    15.56953    4.85602   17.01262
       H    14.36551  -11.42157   13.38865
       O    15.00545  -11.99642   13.75025
      H1    14.54581  -12.40007   14.63624
       H    14.33832  -16.17356   17.01837
       O    14.94327  -16.47237   16.33840
      H1    15.29142  -15.65422   15.90730
       H     8.23527   -6.08460   16.89636
       O     9.03929   -5.74220   17.28410
      H1     9.01104   -6.36465   18.04787
       H    11.41578   -7.24308   10.85662
       O    11.02693   -7.32295   11.69861
      H1    10.74894   -6.41365   11.80465
       H    19.46939   -7.12230   18.78092
       O    18.99734   -7.21062   19.57627
      H1    18.24662   -6.66125   19.26673
       H    12.84806  -13.36792   15.32088
       O    13.73695  -13.25720   15.69218
      H1    13.56049  -13.21403   16.61312
       H    14.98003   -5.10382   12.62716
       O    15.15337   -4.75852   11.76230
      H1    15.94515   -4.25627   11.91243
       H     9.40694   -8.63825   18.41980
       O     8.92742   -8.18620   19.15552
      H1     9.00588   -8.84435   19.90644
       H    17.92063   -6.79661   12.65338
       O    17.65552   -7.02203   13.59689
      H1    17.39713   -7.95286   13.50632
       H    14.48177   -1.51224   11.54241
       O    14.16290   -1.80987   10.66955
      H1    14.31878   -2.78072   10.73760
       H    18.07640   -0.50221   11.83576
       O    18.61621    0.06339   12.43413
      H1    19.16860   -0.57701   12.83128
       H    18.78636  -11.02155   13.53635
       O    19.11321  -11.94213   13.66634
      H1    20.06568  -11.79266   13.44122
       H    18.57218    1.05747   16.24234
       O    18.42805    1.56304   17.04673
      H1    19.19699    1.19712   17.51068
       H    12.36967    0.47554   14.46910
       O    12.17973    0.03917   13.62363
      H1    12.53926    0.76386   13.07955
       H    16.33669    1.25804   17.13387
       O    15.51768    1.76101   17.29300
      H1    15.23889    1.32462   18.14009
       H    18.82911  -12.00003   10.15952
       O    19.33037  -11.42815    9.55022
      H1    19.75242  -10.72903   10.11260
       H    12.55069   -3.14038   18.35837
       O    11.75820   -3.72999   18.24740
      H1    11.86394   -4.24688   19.09384
       H    16.99506    1.50963   14.66855
       O    17.04609    0.55517   14.63261
      H1    17.51421    0.38593   13.82250
       H    16.83954  -18.31594   17.20825
       O    17.49378  -17.85699   16.65965
      H1    17.15632  -16.95123   16.64863
       H    17.16325   -6.90410   15.42777
       O    17.19829   -7.11083   16.37217
      H1    18.09598   -6.88365   16.50533
       H    16.11937  -14.57502   13.65726
       O    16.52681  -15.10516   14.43027
      H1    17.06051  -14.39736   14.82441
       H    15.56562   -9.30624   14.79477
       O    16.21335  -10.00926   14.83832
      H1    15.78332  -10.71981   14.34186
       H    11.16600   -8.73362   13.04400
       O    11.19023   -9.64995   13.36474
      H1    10.54620   -9.52132   14.05739
       H    11.96459   -5.34550   17.42231
       O    11.98195   -6.24115   17.11131
      H1    11.05264   -6.32091   16.91383
       H    14.95727   -2.90968   14.89857
       O    15.84853   -3.17528   14.63449
      H1    16.49015   -2.77332   15.23937
       H    14.66879   -7.39251    9.20244
       O    15.18719   -7.94209    8.64965
      H1    15.41981   -7.33685    7.92648
       H    12.51587   -2.18948   15.61521
       O    13.34717   -1.70239   15.68993
      H1    13.35406   -1.26532   14.80221
       H    19.49093  -10.69213   18.10404
       O    19.45956  -11.23270   18.89985
      H1    19.23558  -10.66823   19.63932
       H    17.65666   -5.81338   10.13179
       O    18.20042   -6.26426   10.80860
      H1    18.91416   -6.67951   10.30364
       H    16.63560  -11.11059   10.71572
       O    16.89161  -10.20739   10.98006
      H1    16.17710  -10.07519   11.62185
       H    12.29288   -7.45501   18.02858
       O    12.50580   -8.30294   18.48953
      H1    13.25381   -8.68908   17.98672
       H    18.34083  -12.67946   15.49620
       O    17.65608  -12.34805   16.15161
      H1    17.45092  -11.48072   15.75316
       H    14.50288  -10.69001   10.63450
       O    14.16104  -10.32984   11.46163
      H1    13.54118   -9.64428   11.22558
       H    13.13332   -9.04157   14.25014
       O    13.98980   -8.71745   14.53033
      H1    13.68996   -7.86315   14.86938
       H    11.26273   -9.34369   17.79281
       O    10.41765   -9.76209   17.47859
      H1    10.63815  -10.63130   17.88560
       H    14.15717   -1.82310   17.42173
       O    13.96444   -2.18150   18.28419
      H1    14.77697   -2.61673   18.51730
       H    18.00802   -2.58118   12.70979
       O    17.26289   -2.64184   12.10933
      H1    16.61539   -2.64050   12.85765
       H     9.05973  -14.00627   19.46910
       O     9.31084  -13.51369   18.70799
      H1     9.93909  -12.81550   19.14158
       H     8.98219   -4.91519   13.03061
       O     9.90573   -4.67746   13.17781
      H1     9.87266   -3.72242   12.98800
       H    18.03170    3.20905   13.66026
       O    18.80555    3.01398   13.14070
      H1    18.96269    2.10056   13.38836
       H     9.74858    0.53595   18.03780
       O     9.68016   -0.13580   17.36509
      H1     9.35271   -0.87080   17.91520
       H    15.43337   -5.64319   20.10532
       O    16.17784   -5.37156   19.58936
      H1    16.17068   -5.75292   18.75289
       H    18.75684    3.26302   18.19595
       O    18.93006    3.81784   18.96003
      H1    19.12723    3.17226   19.61738
       H    15.76097  -14.55363   20.02999
       O    15.33961  -13.80441   19.57951
      H1    16.04834  -13.63665   18.93576
       H    12.58038  -14.67189   18.01436
       O    12.78789  -13.77277   18.24267
      H1    13.45214  -13.88291   18.95386
       H    18.25879   -3.67722   16.43564
       O    18.04795   -2.79861   16.78995
      H1    17.80379   -3.04033   17.72421

