180
frame 0 | Written by MDAnalysis XYZWriter (release 2.4.3)
       H    -4.87830  -10.91994   18.90464
       O    -5.87702  -11.03992   18.64001
      H1    -6.03868  -11.97973   18.94583
       H    -6.73879  -14.09605    7.93444
       O    -5.89348  -14.11921    7.43030
      H1    -5.31656  -13.56098    7.98273
       H    -9.06562  -14.76662    8.63518
       O    -8.42305  -14.10284    8.36811
      H1    -8.82396  -14.02000    7.49796
       H    -7.79624  -12.40538   14.71847
       O    -7.26649  -11.62553   14.99078
      H1    -7.05777  -11.33984   14.08436
       H    -8.20057   -8.36665    9.48721
       O    -7.30767   -8.57434    9.68398
      H1    -6.78096   -7.80590    9.61342
       H    -5.08316  -16.02881    9.67426
       O    -6.03941  -15.81003    9.52316
      H1    -5.94400  -15.14998    8.78375
       H    -6.55515  -13.19095   11.34550
       O    -6.87714  -13.84065   12.01299
      H1    -6.66656  -14.70017   11.68871
       H   -12.18359  -16.97762   17.21455
       O   -12.72221  -17.42230   17.93780
      H1   -13.35459  -16.72513   18.20162
       H   -14.08913  -13.03369   16.47568
       O   -15.04150  -12.73696   16.29476
      H1   -15.19216  -13.03852   15.37067
       H    -5.64803  -13.66187   13.75731
       O    -4.99830  -14.08981   14.34943
      H1    -5.00525  -13.48042   15.16841
       H   -10.69915   -6.34197   15.35252
       O   -10.65128   -5.53619   15.92994
      H1   -11.48072   -5.67821   16.44828
       H    -7.90620   -8.27256   12.92091
       O    -7.99210   -7.66255   13.66165
      H1    -8.36766   -8.23041   14.30417
       H    -7.50942   -9.57969   11.25079
       O    -7.31559   -9.88623   12.16542
      H1    -6.34527   -9.74682   12.18540
       H    -3.14354   -8.74479   15.56242
       O    -4.04667   -8.98594   15.35342
      H1    -4.47619   -8.13307   15.23215
       H    -5.58016  -11.77288   15.86921
       O    -4.76779  -12.18692   16.17173
      H1    -4.91729  -11.99885   17.12628
       H    -4.45533  -17.64688   10.99526
       O    -3.79140  -17.06727   10.60480
      H1    -3.34965  -17.62948    9.98260
       H    -4.40563   -7.68083   19.28943
       O    -5.26723   -7.97013   19.08900
      H1    -5.79114   -7.18616   19.07720
       H    -7.08786   -7.26986   16.57855
       O    -7.72328   -6.53300   16.66825
      H1    -8.13033   -6.50418   15.78241
       H    -6.20934   -8.88742   17.42583
       O    -6.81548   -9.00751   16.63576
      H1    -7.30067   -9.83052   16.82306
       H    -5.22447   -9.72238    7.38438
       O    -6.05486  -10.24765    7.41041
      H1    -6.45219  -10.07573    8.30016
       H    -3.27157  -11.55430   11.60508
       O    -3.31668  -11.82737   10.69385
      H1    -3.15288  -11.04536   10.21681
       H   -11.61211  -13.11194   12.54329
       O   -11.32423  -13.34477   11.64429
      H1   -11.93131  -14.02341   11.41505
       H    -5.58401  -14.69816   19.33508
       O    -5.02355  -13.92354   19.51257
      H1    -4.13715  -14.17198   19.09292
       H    -8.78586   -7.76043   17.24656
       O    -9.43253   -8.34908   17.65631
      H1    -8.79933   -8.99784   18.09702
       H    -1.35592  -13.73181    9.83640
       O    -1.38970  -12.82086    9.48556
      H1    -2.16939  -12.44680    9.96272
       H   -10.28815  -16.57688    9.41804
       O   -10.38987  -16.15010    8.52238
      H1   -11.26014  -15.79483    8.63974
       H    -1.50967  -13.54678   19.34842
       O    -2.35404  -13.60649   18.77570
      H1    -2.29428  -14.54138   18.47914
       H    -6.16981   -5.36213   14.74057
       O    -5.99047   -5.77934   13.85934
      H1    -6.49158   -6.57080   13.97790
       H    -3.05096  -16.98881   18.89644
       O    -3.14776  -16.47292   18.10085
      H1    -4.13390  -16.59878   18.05846
       H   -14.03140   -7.65355   12.24636
       O   -13.86300   -7.73700   13.19152
      H1   -12.87104   -7.87025   13.18463
       H   -14.25409   -8.17300   15.26650
       O   -13.76067   -8.81749   15.72267
      H1   -13.66457   -9.57369   15.09005
       H   -13.03794   -8.75064   17.54286
       O   -12.57022   -8.39304   18.33332
      H1   -11.66926   -8.61225   17.95885
       H    -8.35323  -16.00112   16.37412
       O    -8.89710  -15.30850   16.81048
      H1    -8.78107  -14.56746   16.20861
       H    -9.42914  -10.64032   15.22490
       O    -9.73221   -9.72796   15.25376
      H1    -9.64480   -9.47505   16.19348
       H   -11.90728  -14.37838   15.21859
       O   -11.70081  -14.14964   14.32120
      H1   -12.58576  -13.83933   14.00349
       H   -13.18810  -15.87230   11.45142
       O   -13.16417  -15.55899   10.54456
      H1   -14.00880  -15.00781   10.63317
       H    -9.85500  -17.90063   11.70244
       O   -10.28983  -17.33753   11.02548
      H1    -9.82595  -16.49108   11.11699
       H   -12.08939  -12.67618   17.17082
       O   -12.59271  -13.53197   17.16993
      H1   -12.63712  -13.76548   18.10645
       H    -3.65471  -15.16432   15.08366
       O    -3.04515  -15.87525   15.30781
      H1    -3.25396  -15.83514   16.29210
       H    -9.11412  -13.64915   19.56894
       O    -8.49543  -13.04028   19.17706
      H1    -8.13968  -13.56317   18.45639
       H   -10.91847   -8.44566   14.57129
       O   -11.48773   -7.72172   14.40275
      H1   -12.15347   -7.89398   15.06705
       H   -14.08892  -11.24082   13.77795
       O   -13.39150  -11.43355   14.41984
      H1   -13.84310  -11.71526   15.22452
       H    -4.66044  -18.41390   15.06894
       O    -5.18650  -18.99246   15.71295
      H1    -4.40193  -19.40168   16.10177
       H    -3.30467  -12.13001   14.87456
       O    -2.80059  -11.76738   14.11057
      H1    -2.35835  -12.52421   13.65268
       H   -10.28305  -16.04462   16.24679
       O   -11.08875  -16.59611   16.03278
      H1   -10.67600  -17.23898   15.43270
       H   -14.79159  -15.39949   13.25245
       O   -14.77691  -14.42072   13.31579
      H1   -15.63301  -14.08047   13.00593
       H    -9.84228  -13.68401   14.26025
       O    -8.85777  -13.68743   14.38042
      H1    -8.55459  -13.77118   13.46183
       H    -3.75678   -9.30826   12.15032
       O    -4.34442   -9.90846   12.58929
      H1    -4.28010   -9.65388   13.53757
       H    -1.55434  -10.68401   14.82934
       O    -0.86242  -10.01146   15.04044
      H1    -0.60799   -9.53092   14.27844
       H    -9.76543  -14.13866   11.29085
       O    -9.13950  -14.90259   11.29596
      H1    -8.36160  -14.38478   10.96530
       H    -8.26209  -18.43617   16.18912
       O    -7.71126  -17.66769   16.28091
      H1    -6.91463  -18.03238   15.90148
       H    -3.08060  -17.39895   14.20160
       O    -3.35748  -18.24834   13.82825
      H1    -4.09117  -18.07194   13.24462
       H    -6.52457  -19.34325    9.87014
       O    -7.19630  -18.77324   10.21164
      H1    -6.85609  -17.83044   10.29316
       H   -11.90388  -10.78742    8.50227
       O   -12.12340   -9.82524    8.44135
      H1   -12.94356   -9.87845    8.86588
       H   -10.35549  -12.08298   17.93575
       O   -10.83510  -11.44210   17.49613
      H1   -11.41899  -11.20734   18.20399
       H    -6.14778  -18.56404   11.57925
       O    -5.52196  -18.21200   12.20990
      H1    -6.00566  -18.37448   12.99088
       H    -7.38991  -16.22089   18.27000
       O    -6.47953  -16.11550   18.50641
      H1    -6.46836  -16.65703   19.35333
       H    -1.82049  -15.20790   14.06317
       O    -1.47001  -14.62460   13.38643
      H1    -1.50607  -15.11463   12.59826
       H    -5.18676  -11.56472   10.53711
       O    -6.12128  -11.78283   10.34214
      H1    -6.59318  -11.21723   10.98503
       H    -1.70562   -7.91572   11.99173
       O    -2.64722   -7.84416   11.96450
      H1    -2.84263   -7.09566   12.59972

