180
frame 9 | Written by MDAnalysis XYZWriter (release 2.4.3)
       H   -11.84036  -18.58655   -6.84439
       O   -11.74737  -19.09203   -7.72353
      H1   -11.55062  -19.92764   -7.29895
       H   -12.68684  -16.75809   -5.37759
       O   -12.02144  -17.42922   -5.39337
      H1   -11.32758  -16.79682   -5.19561
       H    -4.39619  -13.04994  -14.66663
       O    -5.12085  -13.23394  -15.26511
      H1    -5.11011  -12.39077  -15.79895
       H    -8.54905  -15.13397   -1.95696
       O    -7.71865  -15.54089   -2.00868
      H1    -7.20650  -14.79717   -2.41430
       H    -5.94200  -13.34956  -13.65764
       O    -6.62081  -13.35062  -12.96614
      H1    -6.61004  -14.30484  -12.77663
       H    -4.47389  -14.64609   -4.84730
       O    -4.92144  -15.47899   -5.18831
      H1    -4.20138  -16.06673   -4.91472
       H     2.01891  -14.24443   -5.13283
       O     1.14887  -14.34939   -5.54545
      H1     0.76624  -15.14092   -5.17484
       H    -1.63105  -12.20000   -7.34736
       O    -2.05900  -12.69520   -8.07498
      H1    -2.30708  -11.99857   -8.66673
       H    -2.38346  -11.09721  -14.24923
       O    -3.04501  -11.65356  -13.93681
      H1    -2.55150  -12.37955  -13.47428
       H     0.96778  -17.43759  -10.00121
       O     1.59585  -18.15263   -9.64676
      H1     1.83210  -17.68772   -8.81388
       H    -9.45935  -12.28450  -13.64180
       O    -8.83911  -11.99149  -14.35067
      H1    -7.95813  -12.18046  -13.93270
       H    -2.26071  -17.25375  -14.61715
       O    -1.94983  -17.88855  -15.30863
      H1    -1.16688  -18.31329  -14.85634
       H    -3.67585   -9.15460   -8.84894
       O    -3.31759   -9.92225   -8.41021
      H1    -3.18081   -9.56133   -7.47384
       H   -12.98319  -12.48701   -9.61278
       O   -13.34912  -13.30627  -10.04363
      H1   -12.74517  -14.00872   -9.83444
       H    -1.57716  -14.84028  -16.53053
       O    -2.20793  -14.61956  -15.82496
      H1    -3.06301  -14.80760  -16.18601
       H    -3.76400  -12.25185   -4.35030
       O    -4.40035  -12.95817   -4.51309
      H1    -4.65002  -12.77708   -5.42820
       H    -0.13649  -15.92756  -10.74519
       O    -0.05292  -16.63005  -11.40253
      H1     0.18795  -16.17712  -12.22749
       H    -2.94218  -18.42183   -8.69254
       O    -3.89819  -18.35354   -8.84720
      H1    -4.09972  -19.30222   -8.69603
       H   -10.88391  -18.15908   -8.88952
       O   -10.27582  -17.60510   -9.44762
      H1   -10.60601  -16.72619   -9.20766
       H    -3.37965  -18.21376   -3.42054
       O    -3.04851  -17.33175   -3.57780
      H1    -3.54773  -16.81620   -2.89860
       H    -6.64207  -17.97386  -15.23142
       O    -5.67830  -17.92969  -15.08358
      H1    -5.24967  -18.62757  -15.64663
       H    -8.50917  -11.10038   -5.34432
       O    -9.21142  -10.96873   -6.03752
      H1    -9.82903  -11.64227   -5.86859
       H    -9.02583  -17.14739  -16.58053
       O    -8.48662  -16.96770  -15.84651
      H1    -8.25674  -16.02086  -15.90304
       H    -0.02337  -15.30389   -7.84635
       O     0.39208  -16.12456   -8.01942
      H1    -0.12135  -16.67068   -7.41552
       H    -0.72516  -11.86815   -5.20666
       O    -0.45096  -11.63127   -6.12156
      H1     0.38219  -12.19134   -6.16809
       H    -5.48518  -17.22667   -8.88263
       O    -6.24596  -16.74888   -9.25271
      H1    -6.01475  -15.82273   -9.26374
       H    -3.39426   -9.97978  -10.98910
       O    -3.41100  -10.85012  -11.39486
      H1    -3.54635  -10.65785  -12.32415
       H   -10.10602  -15.28197   -5.02218
       O   -10.63078  -14.88837   -5.70137
      H1   -10.91389  -14.03758   -5.38977
       H    -3.89060  -15.76792  -12.97124
       O    -2.98207  -15.99456  -13.05368
      H1    -2.84093  -16.68503  -12.38624
       H    -1.81896  -14.33687  -13.55736
       O    -1.38046  -13.68131  -13.04869
      H1    -1.34534  -14.02582  -12.14493
       H    -7.02771  -18.77426   -2.66531
       O    -6.43227  -18.12109   -3.02835
      H1    -6.90884  -17.25757   -2.92893
       H    -9.38166  -16.55742   -3.08071
       O    -9.29119  -17.17709   -3.84229
      H1    -8.58686  -16.78838   -4.40584
       H    -7.89222  -13.81075  -14.94178
       O    -8.03232  -14.24369  -15.81014
      H1    -8.05880  -13.44123  -16.31806
       H    -8.89930  -10.97409   -7.82447
       O    -8.73003  -11.08278   -8.75034
      H1    -7.77748  -10.99924   -8.79939
       H    -8.41317  -12.85358   -8.00313
       O    -8.56044  -13.80214   -8.10605
      H1    -8.25613  -14.03687   -7.23003
       H    -6.19126  -12.42581  -11.24905
       O    -5.75174  -12.27162  -10.40864
      H1    -4.93578  -11.74492  -10.71763
       H    -6.30670  -16.50010  -11.80111
       O    -6.12501  -16.25106  -12.71071
      H1    -5.95070  -17.04307  -13.18522
       H    -5.29651  -10.43748   -8.61577
       O    -6.16627  -10.46442   -8.18168
      H1    -6.04888  -11.21259   -7.57059
       H    -8.95265  -15.65176  -11.41472
       O    -9.10411  -14.81813  -10.99190
      H1    -8.76508  -14.94838  -10.08618
       H   -12.80884  -14.40209  -11.88893
       O   -11.92537  -14.80325  -12.03488
      H1   -12.06485  -15.57742  -11.51960
       H    -8.66703  -17.79530   -8.42926
       O    -8.16726  -18.38324   -7.83479
      H1    -7.25376  -18.00826   -7.89050
       H    -6.04674  -12.75076   -1.70474
       O    -5.84477  -13.53163   -2.23669
      H1    -5.33712  -13.00679   -2.87150
       H    -6.77977  -13.14353   -5.82163
       O    -6.35343  -12.71195   -6.59026
      H1    -6.37416  -13.40350   -7.24750
       H    -5.13883  -14.97713  -15.80231
       O    -4.59961  -15.62133  -16.35512
      H1    -4.74833  -16.39845  -15.76052
       H    -9.48611  -12.93532  -11.19848
       O    -9.41056  -11.98252  -11.37432
      H1    -8.96409  -11.71189  -10.56204
       H    -2.66858  -19.90871   -5.22312
       O    -3.27103  -19.77703   -6.00164
      H1    -3.91377  -19.18362   -5.76137
       H   -13.08773  -17.54481  -10.81545
       O   -12.26478  -17.81244  -11.26818
      H1   -11.64617  -17.85174  -10.52159
       H     0.12243  -13.46391  -10.22987
       O    -0.73491  -13.91008  -10.46145
      H1    -1.28777  -13.70487   -9.67695
       H    -1.21042  -17.96740   -5.90809
       O    -1.09848  -17.19510   -5.30718
      H1    -1.85259  -17.38805   -4.75453
       H    -8.98706  -17.81372  -12.11389
       O    -8.41954  -18.19246  -11.41564
      H1    -8.90962  -17.91368  -10.60604
       H    -7.24651  -19.61110   -5.63854
       O    -6.31071  -19.58385   -5.42622
      H1    -6.21521  -19.10838   -4.57310
       H    -4.27366  -13.87528   -8.01907
       O    -5.07737  -14.17464   -8.54306
      H1    -5.37773  -13.33281   -8.95405
       H    -1.56719  -10.85122  -11.37938
       O    -0.70511  -10.45718  -11.59423
      H1    -0.30643  -10.31996  -10.72025
       H    -2.20883  -19.36720   -7.12513
       O    -1.39971  -18.99154   -7.58419
      H1    -1.08927  -19.73618   -8.16280
       H    -0.13481  -16.58609   -3.88516
       O     0.22904  -15.91509   -3.25696
      H1     0.58786  -16.48701   -2.57047
       H   -11.57877  -14.83051   -7.63946
       O   -11.37389  -14.99212   -8.60256
      H1   -10.47022  -14.61117   -8.68531
       H    -9.44758  -17.42489  -14.21229
       O   -10.06626  -17.49066  -13.54643
      H1   -10.67980  -16.82164  -13.84708
       H    -7.50968  -16.80679   -6.55381
       O    -7.51497  -16.15248   -5.86197
      H1    -6.59166  -15.98587   -5.66112
       H    -8.90799  -20.16498   -3.55928
       O    -8.83029  -19.62309   -2.72103
      H1    -8.95863  -18.77363   -3.14427
       H    -3.63077  -19.14099  -11.91653
       O    -2.98952  -18.45840  -11.55772
      H1    -3.47855  -18.25967  -10.69244

