180
frame 1 | Written by MDAnalysis XYZWriter (release 2.4.3)
       H    -4.23573   -7.03637    4.65822
       O    -5.04886   -6.54937    4.33251
      H1    -5.16786   -5.84803    5.03162
       H    -9.31404  -11.93948    8.58908
       O    -8.60186  -12.55695    8.33759
      H1    -8.79336  -12.66558    7.36894
       H    -4.07212   -3.72568   10.38083
       O    -4.90954   -3.67323    9.88813
      H1    -4.75032   -4.16170    9.04540
       H   -10.42577   -1.21185    8.12678
       O   -10.90515   -1.66865    7.38450
      H1   -10.17237   -2.11761    6.91371
       H    -7.99490   -7.81258   10.02674
       O    -7.39002   -7.30647   10.54648
      H1    -6.58063   -7.30779   10.02643
       H    -8.36940   -9.59486    2.19923
       O    -8.94997   -9.70332    3.00575
      H1    -8.84080   -8.80918    3.50150
       H    -7.42901  -10.79891    3.25453
       O    -6.57163  -11.21628    3.02927
      H1    -6.41646  -11.55897    3.94415
       H    -6.53341   -4.21641   12.64595
       O    -6.67323   -3.33138   12.22005
      H1    -6.21268   -3.27536   11.41133
       H   -14.41239   -0.46246    9.92546
       O   -13.92411   -1.30483    9.90038
      H1   -14.51184   -1.79414    9.29569
       H    -7.89131   -8.82318   13.55082
       O    -8.37452   -8.04977   13.81467
      H1    -8.97914   -8.49866   14.38993
       H    -7.02036   -8.58110   11.50572
       O    -6.70799   -9.38132   12.06565
      H1    -5.93445   -8.92434   12.41121
       H   -13.96349   -4.00829   -0.16919
       O   -13.00236   -4.27781   -0.21021
      H1   -12.92331   -4.95209    0.51268
       H   -13.26152   -7.22607    4.57268
       O   -12.92098   -6.49544    3.99534
      H1   -13.75008   -6.04450    3.79905
       H    -6.66017   -8.29060    6.97324
       O    -7.36043   -7.63301    6.75610
      H1    -7.91295   -7.92419    7.47186
       H   -11.40542   -7.21048    7.57197
       O   -10.84023   -6.50121    7.23418
      H1   -11.51771   -5.78826    7.04052
       H    -7.94044   -7.59714    4.87021
       O    -8.76036   -7.39422    4.34271
      H1    -9.31705   -6.95153    4.98224
       H    -4.75326   -9.49305    8.41016
       O    -5.74515   -9.57789    8.29690
      H1    -5.95047  -10.38349    8.78567
       H    -9.23276   -3.03177    3.44268
       O    -8.77514   -2.23320    3.73062
      H1    -7.85553   -2.38748    3.47628
       H   -11.04802  -12.19276   12.20950
       O   -11.00379  -12.51861   11.29465
      H1   -11.85367  -12.89540   11.18229
       H   -14.44790   -5.99214   11.14805
       O   -14.35238   -6.70752   10.52129
      H1   -14.02292   -6.31495    9.68612
       H   -16.33402   -7.71069    3.18540
       O   -15.74641   -7.28712    2.53658
      H1   -15.20534   -7.94768    2.11232
       H    -9.26366   -4.13818   13.52656
       O    -8.97274   -3.92217   14.41370
      H1    -9.72779   -4.09562   14.97500
       H   -12.44955    0.60631    5.06195
       O   -12.31193    0.51629    6.04901
      H1   -11.88505   -0.36635    6.09291
       H    -6.34063   -5.82928   14.41357
       O    -6.23808   -5.85305   13.44950
      H1    -6.74662   -6.68574   13.23197
       H   -15.01132  -11.60164    8.72744
       O   -14.14299  -11.95969    8.58863
      H1   -14.23349  -12.91552    8.47354
       H   -15.95726   -5.40076    3.54294
       O   -15.79356   -4.66822    4.09372
      H1   -16.12918   -5.01941    4.95016
       H   -13.31419   -7.45639   12.22145
       O   -13.79971   -7.66588   13.06581
      H1   -13.30630   -7.18926   13.75319
       H   -10.35250  -10.81458    3.69798
       O   -10.68145  -11.45217    4.34698
      H1    -9.95860  -12.12500    4.25492
       H    -9.01711   -0.93843   10.38384
       O    -9.03493   -1.24495    9.48440
      H1    -8.18725   -0.88235    9.30951
       H   -13.77925   -9.70878    1.25411
       O   -14.36352   -9.59467    2.07401
      H1   -15.12319  -10.17267    1.79239
       H   -13.63744   -7.34388    6.77367
       O   -13.59908   -6.83972    7.61105
      H1   -13.56927   -5.90372    7.28145
       H    -6.26428   -5.35740    0.66089
       O    -7.14489   -4.98592    0.61810
      H1    -7.63113   -5.26587    1.44746
       H   -14.83960   -4.05842   13.01666
       O   -14.68156   -4.27405   12.10019
      H1   -13.80865   -3.82891   11.88974
       H    -8.21961   -2.59247    9.36673
       O    -7.61870   -3.36232    9.14016
      H1    -6.73683   -3.10141    9.35566
       H   -11.46226  -12.10560    5.92558
       O   -11.90714  -12.30303    6.76364
      H1   -12.79573  -12.00067    6.66501
       H   -11.50519  -10.13476    0.37803
       O   -11.33004   -9.18495    0.31080
      H1   -10.43534   -9.15282    0.68584
       H   -12.29852   -3.84436    6.70071
       O   -12.75451   -4.59000    6.39068
      H1   -12.53704   -4.70730    5.46602
       H    -9.85098   -9.18322    8.56600
       O    -9.31682   -8.41193    8.62714
      H1    -9.90045   -7.70589    8.29643
       H   -12.40592   -2.13013    3.13171
       O   -11.73359   -1.70211    2.53246
      H1   -12.21083   -1.59063    1.73579
       H    -9.16181   -2.87939    5.15710
       O    -9.38566   -3.49897    5.90152
      H1    -8.58017   -3.89381    6.22223
       H   -11.79151   -7.35564    1.30845
       O   -11.72376   -6.40925    1.58774
      H1   -12.00310   -6.45143    2.51052
       H    -7.74469   -4.64023    7.81696
       O    -7.25564   -4.98477    7.00112
      H1    -7.44886   -5.97389    7.01879
       H   -16.23746  -11.62006    4.53724
       O   -15.56043  -11.32136    5.09858
      H1   -14.85278  -11.25357    4.43800
       H   -16.28224   -4.49197   10.93318
       O   -16.97199   -4.65587   10.27426
      H1   -17.54297   -5.24497   10.87260
       H   -12.30185   -2.66523   10.47127
       O   -12.32001   -3.33836   11.16433
      H1   -11.35561   -3.62210   11.13184
       H   -15.56305   -3.53967    8.43421
       O   -16.07924   -2.76373    8.39620
      H1   -15.85973   -2.34295    7.55846
       H    -4.48836   -5.78329    8.06116
       O    -4.65010   -5.08546    7.42863
      H1    -5.63764   -5.04918    7.33324
       H    -6.43780   -1.10197    5.96408
       O    -5.56466   -0.76747    5.74754
      H1    -5.04399   -1.57979    5.81363
       H   -13.57563   -9.22653    6.20292
       O   -14.16747   -8.65828    5.67964
      H1   -14.97214   -9.19797    5.55915
       H   -12.47425  -11.43426    3.70180
       O   -13.36615  -11.77285    3.40957
      H1   -13.56506  -10.91310    2.91958
       H   -13.90001   -2.14648    4.82341
       O   -14.00794   -2.59602    3.99033
      H1   -14.37900   -3.46549    4.41227
       H   -12.05586  -10.45135    7.49025
       O   -12.13150   -9.49216    7.65029
      H1   -12.64081   -9.53194    8.42648
       H   -16.77286   -6.04173    9.35505
       O   -16.93451   -6.90079    8.92407
      H1   -16.13933   -7.42786    9.15910
       H   -10.07547   -5.24869    2.16596
       O    -9.30790   -4.97227    2.70797
      H1    -9.16039   -5.68202    3.33066
       H   -15.27184   -1.54525    6.07414
       O   -14.37439   -1.50154    6.45319
      H1   -14.33411   -0.54233    6.50782
       H    -3.93921   -6.87559   10.42332
       O    -4.60938   -6.49890    9.81308
      H1    -4.76933   -5.55571   10.03799
       H    -9.85518    0.81875    3.56377
       O    -9.06046    0.41623    3.92623
      H1    -9.25819   -0.54325    3.83138
       H   -16.35112   -5.91860    7.47165
       O   -16.38765   -5.38624    6.61412
      H1   -17.30682   -5.48899    6.34748
       H    -8.28837   -3.60654   11.77520
       O    -9.19415   -3.97974   11.71273
      H1    -8.90425   -4.59306   11.01775
       H    -4.97412  -11.43611   10.54277
       O    -5.93701  -11.29733   10.20767
      H1    -6.15947  -10.55120   10.80081

