180
frame 10 | Written by MDAnalysis XYZWriter (release 2.4.3)
       H     5.69888    5.33958   19.37293
       O     4.97453    5.35092   18.68902
      H1     4.87409    6.32474   18.62872
       H    -0.22455    3.09275   13.67365
       O    -1.04224    3.23934   14.20713
      H1    -1.24242    4.15276   13.85245
       H     6.37155    2.81174   17.47885
       O     6.62904    3.69362   17.34690
      H1     5.83163    4.26065   17.76578
       H     4.76486    1.08557   10.61967
       O     4.78846    0.11425   10.72999
      H1     4.18684    0.15429   11.51619
       H    12.66752    0.61052   17.60241
       O    13.32451    0.35864   16.93642
      H1    13.99046   -0.11554   17.41949
       H     9.76053   -0.13322   15.55874
       O    10.60302   -0.25911   15.10521
      H1    10.93020    0.65300   15.09834
       H    -0.24311    3.20491   17.44320
       O    -0.56675    4.06233   17.01199
      H1    -0.66333    3.72289   16.05684
       H     9.25142    5.44793   11.63114
       O     9.91308    4.94624   11.14948
      H1     9.56194    4.14003   10.73976
       H     9.45401   -0.21456   11.91639
       O     8.96659    0.40293   12.55461
      H1     9.63671    0.55894   13.24444
       H     2.31366   -2.90350   15.09534
       O     3.13900   -2.98368   15.51243
      H1     2.89435   -2.81056   16.43612
       H     5.01603   -0.75277   18.44977
       O     4.61999   -1.33369   19.10341
      H1     3.90434   -0.76579   19.51266
       H    11.73866   -1.90475   15.53070
       O    12.41929   -2.24063   16.13397
      H1    12.79525   -1.44245   16.54223
       H    -1.05212    1.09188   15.49582
       O    -1.21304    0.49118   16.24823
      H1    -1.87254    0.96602   16.77245
       H    10.18268   -3.75023   14.26224
       O    10.01451   -4.50969   14.87393
      H1    10.24444   -4.14012   15.73337
       H     2.00243    3.71501    9.69522
       O     2.90160    3.26127    9.78466
      H1     3.15485    3.65693   10.68618
       H     2.51518   -2.16207   18.31894
       O     2.17229   -3.04121   18.12615
      H1     2.71824   -3.63134   18.57370
       H     6.47288   -0.58467   10.49996
       O     7.22947   -1.18372   10.48434
      H1     7.32910   -1.24255   11.45539
       H    11.16749    6.48854   13.85155
       O    10.42963    6.99766   14.29344
      H1    10.69815    7.94165   14.11218
       H     8.67246   -2.07610   19.21127
       O     9.04935   -2.92285   19.41863
      H1     9.53598   -3.08417   18.58092
       H     5.98406    6.38796   11.91246
       O     5.27487    6.38772   11.24638
      H1     4.70820    5.64568   11.50560
       H     1.38555    0.68109   12.17935
       O     1.66245   -0.12474   11.72382
      H1     1.66858    0.10485   10.77176
       H     7.77476   -1.92400   13.74405
       O     8.13665   -2.48678   13.06353
      H1     7.63061   -3.29259   13.09527
       H     2.99482    4.63646   12.77486
       O     3.62679    4.29077   12.10653
      H1     4.24459    3.74779   12.55049
       H     6.31136   -5.70740   16.92018
       O     5.70277   -6.46121   17.27479
      H1     4.98331   -6.33149   16.60447
       H     7.13380    0.42175   13.04253
       O     6.51680    0.74213   13.73125
      H1     6.35282    1.67432   13.44688
       H     0.65002    0.06016   16.89143
       O     1.54819   -0.01670   17.29555
      H1     1.93717    0.83888   16.99820
       H     8.09515   -4.91569   15.89559
       O     7.35266   -4.54355   16.44217
      H1     7.81783   -4.53230   17.30265
       H     4.76024    6.43281   15.99194
       O     4.58551    5.55977   15.62114
      H1     4.58468    5.03120   16.40471
       H    11.58067    3.91983   13.55664
       O    11.78150    4.77735   13.17938
      H1    11.11894    4.77567   12.44639
       H     7.03205    8.83535   16.08245
       O     6.99310    8.54461   17.06719
      H1     7.83097    8.08416   17.18908
       H     0.74732    5.17634   18.18961
       O     1.64027    5.17304   18.56050
      H1     1.56320    5.76198   19.33615
       H    14.25977    2.23283   14.65558
       O    13.83167    1.34161   14.63625
      H1    13.73646    1.23106   15.59553
       H     2.18583    6.87933   17.66876
       O     2.52124    7.83433   17.67578
      H1     2.64647    8.03227   16.74571
       H     6.09573    0.95405   17.65619
       O     5.46403    1.46778   18.22608
      H1     5.98431    1.74852   19.01023
       H    11.32471   -3.37644   17.15228
       O    10.73229   -4.04826   17.54150
      H1    11.32328   -4.71262   17.87461
       H     0.47801    1.14240   18.96913
       O    -0.15860    1.82926   19.11518
      H1    -0.96133    1.31580   19.07220
       H     2.32052   -3.45394   12.49244
       O     1.79442   -2.90461   13.00854
      H1     1.92282   -2.03975   12.61736
       H     3.91755    2.32373   17.93903
       O     3.07398    2.64893   17.65988
      H1     3.03550    3.37749   18.32069
       H    11.20297    2.26735   11.58752
       O    10.45064    2.43339   10.99455
      H1     9.70222    2.21557   11.60440
       H    -0.61384   -4.51306   16.33812
       O    -0.65732   -3.80655   17.01519
      H1     0.23068   -3.63575   17.41493
       H     4.84669    0.11470   14.58156
       O     3.97059   -0.24678   14.50486
      H1     4.09358   -1.17546   14.81213
       H     9.76068    5.53183   15.50409
       O     9.07811    4.87895   15.59940
      H1     8.67010    5.27069   16.37014
       H     1.85672    2.66821   13.50323
       O     1.18555    2.54189   12.76172
      H1     1.41295    3.30784   12.24217
       H     9.69086    3.61350   19.08789
       O     9.34126    2.78817   18.77167
      H1     8.61914    3.02792   18.13361
       H    11.20250    3.08781   15.62990
       O    11.35656    2.42648   14.96395
      H1    12.29119    2.30194   14.94421
       H     7.10219   -5.78231   19.59355
       O     7.93754   -5.51739   19.16175
      H1     8.12170   -4.64186   19.57806
       H     7.42812    0.49372   15.43289
       O     7.84380    0.10117   16.19253
      H1     7.47832   -0.80597   16.18376
       H     5.44007   -2.39411   16.59440
       O     6.14535   -2.13614   15.95022
      H1     6.66868   -2.94019   15.97687
       H     0.99027    5.66441   14.03477
       O     1.94322    5.75072   13.90375
      H1     2.29959    5.40689   14.76047
       H     6.62108   -5.38863   13.31471
       O     6.21161   -4.51476   13.26946
      H1     5.72067   -4.52082   12.44768
       H     6.28589    3.85419   12.71503
       O     5.96866    3.00879   12.39353
      H1     6.43276    2.98564   11.52454
       H     7.66812    2.28345    9.37512
       O     6.78034    2.55080    9.58024
      H1     6.82314    3.48786    9.37557
       H     6.10809    8.11971   18.75964
       O     5.99437    7.76431   19.62661
      H1     6.95650    7.64658   19.86784
       H     3.07835    1.64710   14.73621
       O     2.99062    2.59770   14.81283
      H1     2.97618    2.63725   15.77578
       H     3.25407   -5.92177   18.89642
       O     3.91310   -5.20188   19.02497
      H1     4.60731   -5.55726   18.42199
       H     3.79354   -4.59291   15.15438
       O     4.09787   -5.52376   15.08972
      H1     4.94230   -5.28972   14.61578
       H    10.57718   -1.54501   13.86223
       O    10.90939   -2.30238   13.33544
      H1    10.20192   -2.53645   12.70749
       H     5.81259    5.39083   14.29468
       O     6.43951    5.37883   13.54976
      H1     7.29250    5.23125   13.99955
       H     9.57163    8.49131   18.17839
       O     9.53420    7.70340   17.57611
      H1     9.67814    6.95133   18.19635
       H    11.17410    5.14735   19.75439
       O    10.49741    5.57393   19.23688
      H1    11.06339    6.35984   19.07294

