180
frame 4 | Written by MDAnalysis XYZWriter (release 2.4.3)
       H     1.02020    4.20808   -9.41894
       O     0.38505    4.54010   -8.71651
      H1    -0.22440    5.10461   -9.28239
       H    -4.67861   10.06229   -4.42655
       O    -4.92311    9.13406   -4.44956
      H1    -5.85478    9.26714   -4.71803
       H    -6.60185    2.27456   -5.57208
       O    -6.61647    3.24445   -5.56352
      H1    -6.20978    3.42501   -6.41940
       H    -3.23506   12.37846   -7.55087
       O    -2.91967   11.91691   -8.38750
      H1    -1.96892   12.09202   -8.33989
       H    -5.03446    7.62072   -1.86688
       O    -5.85566    7.34417   -1.40818
      H1    -5.89697    7.71958   -0.51815
       H     2.06013    1.63284   -9.72225
       O     1.98841    2.45917  -10.20699
      H1     1.48752    2.16336  -11.02018
       H    -3.06031    3.79271  -13.15059
       O    -3.43238    4.19503  -13.91109
      H1    -4.25822    4.49312  -13.61981
       H    -1.62227    4.16756   -4.26871
       O    -0.67126    3.90449   -4.35111
      H1    -0.25211    4.64284   -3.90857
       H    -2.55443    8.09234  -12.10153
       O    -1.67505    8.27832  -11.77314
      H1    -1.79586    9.15144  -11.33543
       H     0.25674    8.47909   -7.82831
       O    -0.19128    8.14236   -7.00310
      H1    -0.32607    8.97311   -6.55619
       H    -3.74354    4.13070   -3.64991
       O    -3.29710    4.77581   -4.21540
      H1    -3.48331    4.40968   -5.12683
       H    -2.58493    0.29762   -4.62419
       O    -2.30138   -0.28094   -3.90466
      H1    -1.40651    0.08159   -3.77180
       H    -6.16562   12.37059   -7.01107
       O    -5.62892   13.16675   -6.80120
      H1    -6.23991   13.67576   -6.17300
       H    -0.04402    5.09178  -12.47230
       O     0.58866    5.17116  -11.75489
      H1     1.06482    4.31044  -11.97711
       H    -5.63597    3.63875   -2.52466
       O    -5.29684    2.91903   -3.03078
      H1    -5.58051    3.15804   -3.92397
       H    -0.96219    6.66864   -3.57894
       O    -0.16079    6.33283   -3.22444
      H1    -0.46076    5.80741   -2.45136
       H     1.61105    8.57894   -9.63738
       O     0.66015    8.43238   -9.52861
      H1     0.57816    7.70465  -10.13757
       H    -2.60079    4.29479  -10.72356
       O    -2.67015    3.40437  -11.13620
      H1    -3.06226    2.97189  -10.35279
       H    -6.72066    9.07844  -11.17729
       O    -6.06774    8.77977  -10.57715
      H1    -6.60048    8.11170  -10.06216
       H    -8.87670    9.23615   -6.97449
       O    -8.65165    8.91872   -6.08375
      H1    -9.09296    8.05637   -6.07622
       H    -1.05688    1.23348  -12.52908
       O    -0.59069    1.95458  -12.14982
      H1    -1.33885    2.46086  -11.76447
       H    -7.11550    7.97751   -7.71617
       O    -6.87910    7.34363   -8.41964
      H1    -6.08226    6.85530   -8.12195
       H    -7.01867    4.74290   -0.88229
       O    -6.06244    4.70434   -1.15626
      H1    -5.89671    5.66461   -1.30602
       H    -5.96076   11.55143   -9.88744
       O    -5.38458   11.83605  -10.58036
      H1    -5.81424   11.82234  -11.41748
       H    -0.00194    9.05260   -0.71669
       O    -0.77626    8.49934   -0.43096
      H1    -0.80839    7.78714   -1.06494
       H     0.94381   10.25972  -12.52153
       O     0.72975   10.55564  -11.62360
      H1     0.80227    9.79298  -11.04962
       H    -1.24770    5.24118   -0.76005
       O    -2.12867    5.44561   -0.47486
      H1    -2.01305    5.50608    0.48186
       H     0.17547   12.18722   -9.08358
       O     0.00501   12.05356   -8.13700
      H1     0.13905   12.91315   -7.80323
       H    -2.49909   12.35626   -4.08385
       O    -1.68115   11.86741   -3.75354
      H1    -2.08703   11.28402   -3.12980
       H    -4.50922    7.81422  -13.51300
       O    -4.32120    7.71564  -12.53563
      H1    -5.14284    7.84423  -12.03866
       H    -3.84228    7.95486   -3.51046
       O    -3.25898    7.54325   -2.83382
      H1    -3.26409    6.63485   -3.22347
       H     4.26791    7.89799   -9.10058
       O     3.45978    8.39573   -9.18306
      H1     3.86398    9.31813   -9.18525
       H    -3.35113    1.38066   -6.67960
       O    -3.53790    1.20859   -5.74569
      H1    -4.47148    0.89523   -5.72273
       H    -0.57670    1.50145   -7.98525
       O    -0.85518    0.69102   -8.49450
      H1    -0.23530    0.73378   -9.26473
       H    -4.35446    5.14289   -8.09662
       O    -5.13730    4.86924   -8.57669
      H1    -4.97812    5.20745   -9.50683
       H    -1.06301   10.19729  -14.39156
       O    -0.57428    9.45927  -14.04514
      H1    -1.01740    9.17731  -13.22477
       H    -1.49829   12.31425  -11.44668
       O    -1.17271   13.21617  -11.24747
      H1    -2.05509   13.55998  -11.04091
       H    -2.88215    9.51260   -1.42525
       O    -3.19464   10.42509   -1.55878
      H1    -2.91539   10.89015   -0.75877
       H    -3.48253   10.20823   -8.99066
       O    -3.85500    9.33040   -8.86294
      H1    -4.45069    9.30530   -9.65818
       H    -5.98031    5.36237  -11.88606
       O    -5.29329    5.36476  -11.21279
      H1    -4.69571    6.08669  -11.42418
       H    -0.04760    3.34445   -7.43730
       O    -0.44414    2.75844   -6.82255
      H1    -0.44221    3.17882   -5.99656
       H     0.67675    6.41940   -4.75249
       O     1.20639    6.29308   -5.61527
      H1     0.71329    7.00577   -6.12135
       H    -6.27817    3.52270   -8.72954
       O    -6.92879    2.80595   -8.78716
      H1    -7.64269    3.29545   -9.21226
       H    -5.17080   11.91156   -3.86617
       O    -4.53344   11.90456   -4.59451
      H1    -4.97593   12.36076   -5.33479
       H    -3.75454   11.11242  -11.18766
       O    -2.76344   11.00477  -11.29661
      H1    -2.41096   11.32154  -10.45716
       H    -1.92535    7.17189   -7.19981
       O    -2.77182    6.79377   -7.50829
      H1    -3.22233    7.60631   -7.77803
       H    -2.18349    7.06957  -10.80019
       O    -2.34796    6.26023  -10.32309
      H1    -2.17498    6.71200   -9.45776
       H    -2.10628    3.58601   -6.85188
       O    -2.91432    4.11419   -6.75125
      H1    -2.64371    5.02682   -7.00695
       H     1.22916    1.17161   -4.11730
       O     0.47424    1.42570   -3.54401
      H1     0.35244    2.32880   -3.79343
       H     1.29788    6.87955  -12.30105
       O     1.55055    7.81928  -12.37542
      H1     1.34329    8.02396  -13.27415
       H     1.19490    7.67325   -3.03024
       O     1.38868    8.48905   -2.47954
      H1     2.16602    8.17997   -1.95130
       H    -2.60879    0.52018   -9.26831
       O    -3.54095    0.57880   -9.16432
      H1    -3.81809    0.43894  -10.09896
       H    -5.58321    3.59468  -11.37492
       O    -5.86687    2.66063  -11.42189
      H1    -6.16564    2.51817  -10.52476
       H    -5.65257   10.60161   -7.95267
       O    -6.59352   10.76300   -7.93130
      H1    -7.00842    9.90751   -8.03376
       H     0.67562   11.00615   -3.99853
       O     1.18153   10.88063   -3.14450
      H1     1.06043    9.88171   -3.09492
       H     2.20478   12.10243   -6.32856
       O     2.77891   11.56829   -6.92737
      H1     2.70181   10.63641   -6.54844
       H    -8.36371    3.94438   -5.36041
       O    -9.26279    4.12682   -5.04978
      H1    -9.33528    5.07170   -5.23471
       H     2.85133    8.15656   -7.06629
       O     2.77805    8.82852   -6.35596
      H1     2.51310    8.33068   -5.58583
       H     0.09665   11.28842   -6.48472
       O    -0.05106   10.74385   -5.68538
      H1    -0.84860   11.16782   -5.31868
       H     2.47391    5.39327   -6.80374
       O     3.28368    5.07756   -7.24864
      H1     2.92384    4.83446   -8.11352

