180
frame 2 | Written by MDAnalysis XYZWriter (release 2.4.3)
       H    13.27248  -16.36245  -18.92726
       O    13.92027  -16.73797  -19.52152
      H1    13.39588  -17.41370  -20.01855
       H    16.86457   -6.96818  -16.38583
       O    15.99026   -7.27183  -16.10048
      H1    15.99432   -8.20354  -16.36120
       H    15.17758   -9.56803  -12.97796
       O    14.79351   -9.29677  -13.84140
      H1    14.98872   -8.32808  -13.78008
       H     7.46086  -17.39919  -10.77263
       O     8.37146  -17.70934  -10.79570
      H1     8.97501  -17.08754  -10.27016
       H    10.22845   -6.44496  -18.22252
       O    11.06288   -6.91995  -18.35243
      H1    10.71693   -7.66386  -18.84786
       H     6.56425  -19.60615  -13.36825
       O     5.64404  -19.46894  -13.25480
      H1     5.38857  -18.62226  -13.71277
       H    17.53148  -16.46061  -11.45677
       O    17.08696  -16.17086  -10.68259
      H1    16.40791  -16.86249  -10.59675
       H    15.10898  -19.43790  -17.72066
       O    15.88608  -18.87944  -17.51152
      H1    15.52978  -18.24689  -16.92857
       H     5.00455  -17.85273  -16.28419
       O     4.77799  -17.96480  -15.33179
      H1     4.66504  -17.07493  -15.02949
       H     3.87181  -14.88016  -14.47485
       O     4.54929  -15.47378  -14.07839
      H1     5.32813  -14.86211  -14.07107
       H    15.73628  -16.40861  -15.42428
       O    15.07450  -17.09901  -15.15363
      H1    15.54144  -17.48324  -14.42773
       H     2.10208  -12.90515  -18.32890
       O     2.97914  -12.77849  -17.95513
      H1     3.51276  -13.43083  -18.40186
       H    11.43684  -13.46364  -15.23924
       O    12.20130  -13.79598  -15.71817
      H1    12.67356  -14.14911  -14.97672
       H     8.31934  -17.41769  -13.77553
       O     7.63632  -16.79227  -13.84160
      H1     7.01458  -17.29163  -14.32840
       H    10.23144  -10.19670  -10.43773
       O    11.14028  -10.45659  -10.66596
      H1    11.00885  -11.34337  -11.07263
       H    16.40086  -19.66526  -14.09663
       O    16.18785  -18.87655  -13.58365
      H1    15.97788  -19.21076  -12.71905
       H    17.28412  -13.07991  -11.37471
       O    17.87455  -12.53138  -10.77503
      H1    18.80817  -12.63900  -11.05179
       H    18.09080   -9.91733  -13.31123
       O    18.15473  -10.89817  -13.17395
      H1    17.70065  -10.96089  -12.33396
       H    12.11922   -7.92734  -17.41180
       O    12.81015   -8.24512  -16.76677
      H1    12.37199   -9.00206  -16.27812
       H    18.03465  -13.75301  -16.56430
       O    18.29334  -13.57057  -17.47225
      H1    18.26647  -12.61996  -17.40344
       H    11.31376  -15.80749  -11.17841
       O    11.48743  -15.54333  -12.10388
      H1    12.41341  -15.30239  -12.06747
       H    12.11012  -17.13165  -12.82145
       O    12.78421  -17.83609  -12.93133
      H1    13.37902  -17.39856  -13.52298
       H     9.31936   -9.16468  -14.71621
       O     8.75191   -8.70899  -15.34413
      H1     8.97345   -7.76962  -15.21808
       H     6.62155  -14.39447  -12.09075
       O     7.01472  -14.17427  -12.99530
      H1     7.34473  -15.01720  -13.25840
       H    18.76970  -15.79459  -17.89766
       O    18.95455  -15.89882  -18.82422
      H1    18.50103  -15.12989  -19.26879
       H     7.99764  -19.89963  -17.90878
       O     8.18649  -19.46132  -17.08857
      H1     9.01984  -18.96807  -17.27370
       H     8.90478   -9.29359  -16.81039
       O     9.03206   -9.82080  -17.66691
      H1     8.15874  -10.22898  -17.65384
       H    14.96799   -9.80833  -17.81186
       O    15.83821   -9.44766  -17.92920
      H1    16.44637  -10.16920  -17.56804
       H    19.44148  -15.61033  -12.34061
       O    18.70713  -15.88039  -12.91962
      H1    19.11201  -16.62261  -13.55926
       H    14.59393  -14.21979  -14.43227
       O    14.04749  -14.78522  -13.91498
      H1    14.39604  -15.66996  -14.23354
       H    11.15902  -16.95085   -9.05787
       O    10.77883  -16.34286   -9.67008
      H1    10.20813  -15.81991   -9.01731
       H     3.03826  -18.44540  -17.93479
       O     3.25470  -17.81878  -18.63041
      H1     3.49130  -17.09291  -18.09264
       H    16.42891  -14.81094  -11.67568
       O    15.92825  -14.21224  -12.20698
      H1    15.35138  -14.85138  -12.70468
       H    10.48308  -12.15450  -15.64595
       O     9.80503  -12.68152  -15.19450
      H1     9.24207  -12.02943  -14.80911
       H     6.55590  -10.20815  -18.86771
       O     6.49470  -10.82861  -18.12577
      H1     5.88062  -10.46025  -17.48041
       H    15.91259  -10.19859  -15.18231
       O    16.59297  -10.75463  -15.65373
      H1    17.21367  -10.89187  -14.92460
       H    12.17411  -10.76988  -16.63906
       O    11.35975  -10.62627  -16.14065
      H1    10.69812  -10.43254  -16.81900
       H     8.66393  -14.07464  -15.45867
       O     8.03226  -14.77880  -15.72167
      H1     7.97530  -15.26780  -14.87606
       H    17.66852   -8.39626  -15.23214
       O    17.69745   -8.49308  -14.25808
      H1    16.79362   -8.07154  -14.23241
       H    18.73609  -16.66621  -15.85590
       O    17.97894  -16.42414  -16.29229
      H1    17.83222  -17.12781  -16.94142
       H     6.71349  -13.82084  -15.97398
       O     5.82482  -13.38456  -16.03452
      H1     5.98054  -12.45058  -15.73117
       H     2.11548  -13.63380  -15.51245
       O     2.94176  -13.31034  -15.08438
      H1     3.62421  -13.51230  -15.72416
       H    19.82517   -9.20814  -17.82069
       O    18.97152   -9.61613  -18.07277
      H1    18.74760   -8.95893  -18.71704
       H    11.88014  -19.68267   -7.53324
       O    11.84475  -18.87655   -8.08403
      H1    12.02623  -19.19903   -8.94942
       H     7.01454  -10.73977  -13.74343
       O     7.32131  -11.48717  -14.27842
      H1     7.18025  -12.14187  -13.52962
       H     8.06892  -16.05374  -19.19377
       O     8.45816  -15.46093  -18.51941
      H1     8.00540  -15.68340  -17.67639
       H    10.99457  -17.08886  -17.54543
       O    10.28144  -17.60372  -18.00281
      H1     9.62518  -16.97501  -18.30600
       H    12.00826  -15.49315  -16.35118
       O    12.30176  -16.16951  -16.97103
      H1    12.64644  -16.90960  -16.42068
       H     5.65862  -17.92455  -18.76044
       O     6.18671  -17.34092  -18.21803
      H1     6.81164  -17.99515  -17.77278
       H    10.84339  -10.28423  -14.57880
       O    10.44674  -10.03998  -13.71160
      H1    11.06748   -9.42331  -13.27544
       H    18.44807  -14.36132  -13.90520
       O    18.32499  -13.55212  -14.43577
      H1    18.28662  -12.83110  -13.81664
       H    15.82524   -9.84679  -10.30080
       O    15.15111   -9.61521  -10.95639
      H1    14.38652  -10.03698  -10.66243
       H    13.43459  -12.85755  -17.23244
       O    13.40603  -12.20451  -17.97212
      H1    14.29997  -12.42891  -18.34986
       H    12.92855   -7.77910  -11.62959
       O    11.95225   -7.87876  -11.75144
      H1    11.73464   -8.79887  -11.68685
       H    13.02622   -6.84913  -18.64036
       O    13.76645   -6.24073  -18.28964
      H1    14.15784   -6.96735  -17.70829
       H    10.33587  -13.45328  -10.32243
       O     9.83501  -13.49572  -11.14770
      H1    10.42616  -14.12146  -11.60460
       H    16.26200  -13.38486  -15.04516
       O    15.39290  -13.23541  -15.46109
      H1    15.48556  -12.29369  -15.65233
       H    13.99024  -18.38193  -11.60555
       O    14.94139  -18.54585  -11.26995
      H1    14.72008  -18.89625  -10.40952
       H     5.20243  -14.40217  -17.41748
       O     4.83216  -14.86249  -18.15421
      H1     5.32379  -15.72517  -18.03187
       H     8.45059  -12.40197  -10.94623
       O     7.61064  -11.88356  -11.10058
      H1     8.05392  -11.02404  -11.28162

