180
frame 1 | Written by MDAnalysis XYZWriter (release 2.4.3)
       H   -15.37153   11.83840    1.38807
       O   -16.26744   12.03292    1.59470
      H1   -16.50417   12.67837    0.91687
       H   -10.83691   10.47465    0.97094
       O   -11.33923   10.51172    1.79169
      H1   -12.15209   10.84554    1.43196
       H   -16.76018    5.00221    6.97924
       O   -16.08612    4.41063    7.35201
      H1   -15.84444    4.76226    8.22992
       H   -13.60949    0.71483    5.64327
       O   -14.34549    0.42071    5.11280
      H1   -15.16562    0.83999    5.29483
       H   -10.94733    8.31248    9.77606
       O   -10.81608    8.68379   10.70589
      H1   -11.32910    8.10350   11.34901
       H   -17.12600    3.03587    7.27095
       O   -17.74748    2.29579    7.14286
      H1   -18.54852    2.60667    7.60176
       H   -11.41296   10.09197    9.77099
       O   -11.99100   10.68960    9.25974
      H1   -11.45608   11.45947    9.00701
       H   -14.23098    6.29587   -1.97940
       O   -14.25615    6.67992   -2.88509
      H1   -14.07357    7.61156   -2.63862
       H   -15.72236    6.23940   10.32492
       O   -15.05380    5.62470    9.86524
      H1   -14.70038    5.09189   10.57397
       H   -13.62441   10.41927    9.01422
       O   -14.56953   10.37832    8.86033
      H1   -15.01304   11.27852    9.00317
       H   -13.76018    9.30493   -1.57160
       O   -13.48151    9.26201   -2.50099
      H1   -13.92244    9.97526   -3.01481
       H   -15.93541    9.73233    7.90958
       O   -16.65335    9.14462    7.67330
      H1   -17.34580    9.24494    8.35396
       H    -7.56658    3.85326    6.96732
       O    -7.02916    4.20625    6.25310
      H1    -7.52627    3.89285    5.53674
       H   -10.48648    6.40105    4.93345
       O    -9.63900    6.00883    5.19750
      H1    -9.57004    6.32861    6.10493
       H   -12.07773    4.72296    7.59614
       O   -12.11588    5.44407    8.26559
      H1   -12.79025    5.16925    8.87385
       H    -5.79188    5.14144    2.00488
       O    -6.02125    5.08821    1.07729
      H1    -6.96041    4.95981    1.02948
       H   -16.71492    1.87581    4.09025
       O   -16.90852    1.20962    4.77037
      H1   -17.10148    1.68540    5.60004
       H   -19.98979    6.90552    5.53285
       O   -19.74707    6.11434    5.08654
      H1   -19.02495    6.43632    4.53902
       H   -11.86770    8.78646    8.14841
       O   -11.19099    8.12937    8.14189
      H1   -11.65820    7.28253    8.07382
       H   -11.42336    1.06781    2.65310
       O   -11.73926    1.71471    2.01300
      H1   -11.09533    1.68301    1.28050
       H    -7.48548    7.89164    1.88595
       O    -7.03935    7.99067    1.06877
      H1    -6.66334    7.08906    0.80345
       H   -11.30578   -1.00917    4.50931
       O   -11.14647   -0.05409    4.46286
      H1   -10.19848   -0.00840    4.42138
       H   -13.52522   12.17965    0.05161
       O   -13.64301   11.65494    0.84289
      H1   -13.90163   10.76961    0.56900
       H    -9.25695    7.65261   10.53024
       O    -8.49361    7.19636   10.18661
      H1    -7.79666    7.78442   10.20491
       H    -5.20408    8.38791    5.60433
       O    -5.72028    8.59013    4.76318
      H1    -5.00655    8.78961    4.04166
       H   -12.43023    7.51814    4.21126
       O   -12.24973    6.66011    4.60510
      H1   -13.01922    6.29052    4.94455
       H    -7.67959    2.89232    2.53092
       O    -7.35065    2.21806    1.94050
      H1    -6.40485    2.33007    1.90329
       H   -17.93576    6.65756    2.68000
       O   -17.44643    7.04372    3.40598
      H1   -16.56198    6.83941    3.07636
       H    -8.83702    3.35764    8.59621
       O    -8.18620    2.81693    8.16534
      H1    -7.54357    2.61417    8.81179
       H   -13.20844    2.59844    1.50355
       O   -14.07773    2.72276    1.07285
      H1   -14.28216    1.78380    0.88144
       H   -13.51711    8.39128    0.44945
       O   -14.15436    9.06004    0.12357
      H1   -15.03193    8.67915    0.07721
       H   -12.41462    8.11897    2.24903
       O   -12.51262    7.43341    1.61684
      H1   -11.70745    7.45460    0.99540
       H   -10.84987    0.82120    5.97569
       O   -10.56196    1.42433    6.63639
      H1   -11.32926    2.03529    6.75929
       H    -7.61956    5.66094    7.12911
       O    -7.88125    6.48918    7.48526
      H1    -8.02913    6.44751    8.43615
       H   -17.14563   10.59027    2.20793
       O   -17.75948    9.81751    2.18376
      H1   -17.44379    9.21882    2.83433
       H   -12.14398    3.76224    9.94213
       O   -12.91128    3.55560   10.53634
      H1   -13.46364    2.95627    9.98796
       H    -8.32826    0.18872    5.17911
       O    -8.51351    0.21739    4.23454
      H1    -8.00876    1.05981    4.03575
       H   -11.29569   11.98223    3.24168
       O   -11.29449   12.51813    4.04397
      H1   -10.78697   11.96553    4.71302
       H   -11.51566    5.44743    2.70392
       O   -11.00959    4.91209    2.07396
      H1   -11.24028    4.03224    2.40906
       H    -7.33248    8.21852    4.23621
       O    -8.17754    8.24974    3.77175
      H1    -8.72635    7.49510    4.09099
       H   -17.17199    3.37847    2.72652
       O   -16.23653    3.22524    2.84755
      H1   -15.66227    3.30451    2.10073
       H   -17.31228    7.36439    6.97093
       O   -17.73016    6.48256    6.79660
      H1   -18.48474    6.59811    6.21203
       H   -13.50943    2.35796    7.32090
       O   -12.89403    2.84988    6.74171
      H1   -13.38127    3.20778    5.96698
       H    -9.72138    4.73936   10.81440
       O    -9.74960    4.64534    9.84935
      H1    -9.67652    5.58724    9.60137
       H   -11.50724    4.35031   -0.57574
       O   -11.32845    5.09737   -1.14756
      H1   -12.06893    5.35127   -1.62927
       H   -15.06304   11.89768    5.80226
       O   -15.63393   12.66470    5.92098
      H1   -16.53393   12.36439    5.91031
       H   -14.11438    6.73635    2.37954
       O   -14.97653    6.33769    2.27937
      H1   -14.87815    6.06970    1.32642
       H   -15.17247    4.51254    5.53061
       O   -14.51665    4.23200    4.86346
      H1   -15.10229    4.23236    4.06075
       H    -9.00206    4.29915    4.25487
       O    -8.76747    3.43160    3.85936
      H1    -9.57539    2.93521    4.04559
       H   -12.83821    9.71658    4.53945
       O   -12.59497    9.17452    3.76379
      H1   -12.14662    9.77824    3.14520
       H   -13.00913   11.94473    5.54919
       O   -13.45980   11.07914    5.74074
      H1   -13.41245   11.07726    6.72858
       H   -10.30885   10.98170    6.98764
       O   -10.12331   10.79944    6.06139
      H1   -10.29806    9.83174    6.12227
       H    -7.29630   10.35714    5.10535
       O    -7.31210   10.66610    6.02250
      H1    -8.26661   10.63041    6.14865
       H    -4.50435    6.32887    2.94927
       O    -5.29176    6.15220    3.53160
      H1    -5.36096    6.92454    4.14568
       H   -10.49545    6.60499   -0.60639
       O   -10.37258    7.58342   -0.45963
      H1    -9.68986    7.52950    0.25394
       H   -17.24872    8.31615    0.60856
       O   -16.78826    8.43196   -0.21934
      H1   -16.92256    9.40959   -0.46918
       H   -14.65761    4.47334   -0.09814
       O   -14.81831    5.28875   -0.59495
      H1   -15.69578    5.15072   -0.96146
       H   -14.38310    6.82963    7.86309
       O   -14.11376    7.71079    7.55081
      H1   -14.98003    8.21822    7.59466
       H    -9.51247    4.99537    1.07644
       O    -8.72368    5.32784    0.63140
      H1    -8.92309    5.39773   -0.28483
       H    -6.27224    7.50706    7.29849
       O    -5.41290    7.92771    7.34899
      H1    -4.91875    7.10255    7.42193

