180
frame 9 | Written by MDAnalysis XYZWriter (release 2.4.3)
       H    -1.14694   -8.53768  -13.84995
       O    -1.05116   -8.07420  -13.03962
      H1    -0.89491   -8.81112  -12.42852
       H    -4.97356   -6.59425  -10.36964
       O    -5.79409   -6.10787  -10.49940
      H1    -6.09223   -6.02010   -9.58510
       H    -2.11876   -3.04672  -12.62246
       O    -2.69348   -2.61938  -13.28734
      H1    -2.73339   -1.66050  -12.93192
       H    -2.38346  -11.09721  -14.24923
       O    -3.04501  -11.65356  -13.93681
      H1    -2.55150  -12.37955  -13.47428
       H    -0.04035   -2.96151   -7.63403
       O     0.56133   -3.12102   -6.90551
      H1     0.99481   -3.87745   -7.26566
       H     5.54128   -5.72213   -9.21124
       O     6.24878   -5.53455   -9.82432
      H1     5.86441   -5.21595  -10.61977
       H    -3.67585   -9.15460   -8.84894
       O    -3.31759   -9.92225   -8.41021
      H1    -3.18081   -9.56133   -7.47384
       H     3.36289   -2.99700  -10.37703
       O     2.71241   -3.27735   -9.67658
      H1     3.01725   -2.77442   -8.88518
       H     0.50031   -1.95666  -11.58019
       O     0.39419   -2.09868  -10.56176
      H1     1.27984   -2.54333  -10.31039
       H    -7.71167   -4.94180  -12.92482
       O    -6.69565   -4.99560  -12.93591
      H1    -6.48751   -5.25554  -12.01511
       H     3.70607   -7.02902  -17.80677
       O     4.02110   -7.90598  -17.51142
      H1     4.98539   -7.69421  -17.49459
       H    -3.24379   -7.58054  -17.84726
       O    -3.42085   -6.72552  -17.36345
      H1    -4.38304   -6.55292  -17.55858
       H     3.31204   -8.62731   -6.09592
       O     2.76690   -8.48577   -6.90220
      H1     2.95307   -9.26861   -7.42896
       H    -1.71839   -5.24867  -10.44032
       O    -1.78604   -5.84068   -9.65146
      H1    -2.41407   -5.36339   -9.08345
       H     2.31036   -0.23807   -9.65808
       O     1.47576    0.04496   -9.30835
      H1     0.88043   -0.50082   -9.84501
       H     3.11240   -6.39999   -9.98531
       O     2.25938   -6.67684  -10.31459
      H1     1.64268   -6.40555   -9.61444
       H     0.27777   -6.66713  -12.70955
       O     0.78714   -5.84932  -12.82465
      H1     1.35859   -5.76253  -12.04777
       H     3.24805   -5.89336  -15.13424
       O     4.08574   -6.37102  -15.04679
      H1     4.16888   -6.83243  -15.86414
       H     0.16711  -10.76547   -7.91305
       O     0.07382  -10.06061   -8.60569
      H1     1.01265   -9.92210   -8.68909
       H     2.71113   -8.51832  -10.00595
       O     2.75456   -9.45977   -9.74287
      H1     3.55280   -9.76117  -10.10913
       H     0.30043   -4.13278  -17.33490
       O     0.68241   -3.25872  -17.09608
      H1    -0.19156   -2.85142  -16.91754
       H    -3.39426   -9.97978  -10.98910
       O    -3.41100  -10.85012  -11.39486
      H1    -3.54635  -10.65785  -12.32415
       H     3.52918   -2.00693  -12.44024
       O     4.13850   -2.67488  -12.09142
      H1     4.40769   -3.19876  -12.84388
       H     7.68651   -7.62184  -15.05954
       O     7.30728   -6.71106  -15.09729
      H1     7.07770   -6.49282  -14.19133
       H    -2.32607   -2.53963  -15.13188
       O    -1.94468   -1.87339  -15.83296
      H1    -1.35624   -1.34801  -15.22001
       H    -2.61123   -7.43444  -12.87128
       O    -3.30705   -6.76956  -12.68433
      H1    -3.83067   -6.91588  -13.41755
       H    -0.61932   -3.35760  -11.42791
       O    -1.14667   -4.05132  -11.87067
      H1    -0.53916   -4.56442  -12.40328
       H     2.97456   -8.47294  -15.59210
       O     2.14654   -8.54426  -15.15677
      H1     1.96988   -7.57314  -15.09913
       H    -1.06191   -1.98275   -9.49993
       O    -1.73847   -2.19120   -8.86120
      H1    -2.35107   -1.39189   -8.82522
       H    -3.11393   -3.97860  -14.27831
       O    -3.28143   -4.57111  -15.03515
      H1    -3.78881   -4.00443  -15.63146
       H     2.14945   -5.43309  -17.81053
       O     3.12532   -5.51800  -17.82474
      H1     3.09173   -5.38987  -18.77227
       H     1.06644   -8.18729   -6.95384
       O     0.13893   -7.89251   -6.90665
      H1    -0.23265   -8.56903   -7.48887
       H     6.08610   -8.00485  -12.35202
       O     7.05403   -8.08209  -12.33060
      H1     7.25003   -8.76180  -13.02243
       H    -0.71992  -10.80279  -16.52802
       O    -0.57431  -10.20372  -15.77448
      H1     0.06473   -9.65226  -16.19561
       H    -1.19778   -5.48611  -17.05500
       O    -0.42704   -5.97791  -17.34060
      H1    -0.52610   -5.97137  -18.26364
       H    -4.91460   -2.82554  -10.38822
       O    -4.52739   -2.44544   -9.59236
      H1    -3.56188   -2.72456   -9.54210
       H     4.67554   -2.63151  -14.92162
       O     5.43984   -3.13743  -14.48993
      H1     6.20379   -2.70505  -14.97670
       H     0.17964  -13.61158  -13.77746
       O     0.87391  -13.57076  -14.41838
      H1     1.33006  -12.73554  -14.23755
       H    -0.03357   -5.44402   -8.61431
       O     0.85566   -5.41802   -8.28950
      H1     0.73092   -6.10567   -7.58469
       H     5.25527   -6.04827  -13.26437
       O     5.99219   -5.46836  -12.90563
      H1     5.83557   -4.70215  -13.45395
       H     6.49030   -6.09317  -16.44909
       O     5.85186   -5.92546  -17.19218
      H1     5.07207   -5.45640  -16.83058
       H     3.22624   -5.30809   -7.44417
       O     3.75637   -5.42846   -8.25418
      H1     3.42464   -4.74473   -8.88659
       H     1.70562  -10.29332  -14.35321
       O     1.69200  -10.97130  -13.62477
      H1     0.93105  -10.59308  -13.16416
       H    -2.83742   -5.35179  -17.79706
       O    -2.55654   -4.44315  -18.24789
      H1    -2.64834   -4.73635  -19.17772
       H    -3.62101   -7.54055  -11.12536
       O    -3.71162   -7.82672  -10.23609
      H1    -2.92596   -7.32425   -9.93830
       H     4.47783   -8.35291   -8.29605
       O     5.25424   -8.02723   -8.78348
      H1     5.55025   -8.71544   -9.49280
       H    -2.63347   -9.97447  -17.72738
       O    -2.41759   -9.22741  -18.31705
      H1    -1.49819   -9.44028  -18.52121
       H    -4.43419   -2.58884  -12.67852
       O    -5.36167   -2.71025  -12.48678
      H1    -5.42986   -3.62899  -12.88827
       H    -1.56719  -10.85122  -11.37938
       O    -0.70511  -10.45718  -11.59423
      H1    -0.30643  -10.31996  -10.72025
       H    -4.26783   -3.64371   -8.18999
       O    -3.59092   -4.22723   -7.88562
      H1    -3.27450   -3.78277   -7.08823
       H     4.10992   -7.65920  -14.07046
       O     4.34304   -8.30348  -13.35892
      H1     3.40779   -8.69512  -13.26840
       H     2.57467   -1.65628  -15.65170
       O     2.90458   -2.50363  -15.23031
      H1     2.41351   -3.07403  -15.81487
       H     3.22777  -11.19289  -17.56820
       O     2.84321  -10.47613  -18.09040
      H1     3.43463   -9.73515  -17.73653
       H    -0.58245    1.01962  -15.47322
       O    -0.62754    0.64746  -14.59071
      H1     0.10672    0.01877  -14.65152
       H    -2.02239   -9.36148  -15.55524
       O    -2.75850   -8.78371  -15.35119
      H1    -2.77739   -8.08950  -16.01419
       H     0.52903   -6.20034  -15.92119
       O     1.30037   -5.96608  -15.35345
      H1     1.01377   -6.04546  -14.44813
       H     3.90134  -12.49577  -11.62743
       O     4.17038  -11.92007  -12.40152
      H1     3.28913  -11.76798  -12.80019
       H    -4.41623   -5.73481  -14.93904
       O    -5.14790   -6.32625  -15.01467
      H1    -5.80682   -5.92359  -14.48627
       H     4.90671  -10.51569  -11.45991
       O     5.26939  -10.12218  -10.65280
      H1     5.46550  -10.86727  -10.08899
       H     0.20101   -2.94659  -13.75008
       O     0.56819   -2.04160  -13.62238
      H1     1.44275   -2.19630  -14.00675

