180
frame 121 | Written by MDAnalysis XYZWriter (release 2.4.3)
       H     9.82144  -11.94039   -3.86100
       O     9.72241  -12.36750   -4.75264
      H1     9.04055  -11.66408   -5.05727
       H     9.08816  -15.11335   -3.95646
       O     9.07716  -15.90752   -4.47836
      H1     9.58874  -16.53496   -3.87919
       H    14.09486  -11.45670   -3.99294
       O    14.65649  -11.63825   -3.23460
      H1    14.82147  -10.78169   -2.89142
       H     4.73873   -8.57589    1.73529
       O     4.68025   -9.44024    2.11455
      H1     4.40584   -9.95743    1.30572
       H    15.08953   -9.38975    4.29068
       O    15.76919   -8.68903    4.46376
      H1    16.23843   -8.68888    3.60063
       H    11.32968   -9.69121    2.44787
       O    12.05615   -9.10961    2.72167
      H1    11.73872   -8.61632    3.49713
       H    10.02799  -11.29654    1.70518
       O    10.40842  -10.69624    1.06153
      H1     9.76262   -9.93315    0.94372
       H    10.53551  -11.51912    4.56593
       O     9.85396  -11.49574    3.90393
      H1     9.27340  -10.80758    4.20449
       H    15.11821  -18.99392    5.10569
       O    14.39546  -18.39529    4.79472
      H1    14.14812  -17.99637    5.59671
       H    13.76317  -10.45494    5.84350
       O    13.94313  -10.02594    6.68180
      H1    13.43984   -9.20619    6.64268
       H     6.74133  -14.09282   -3.63527
       O     6.76796  -13.70525   -4.50954
      H1     6.78824  -14.48538   -5.06812
       H     6.42472  -10.35497    2.74806
       O     7.27609  -10.73074    2.60239
      H1     7.15148  -11.37829    1.87733
       H     7.30577  -15.62557   -1.94086
       O     6.72366  -14.83599   -2.00368
      H1     7.29797  -14.06665   -1.77804
       H    14.36687  -14.20825   -4.68969
       O    14.29667  -14.47281   -3.70126
      H1    14.04274  -13.64901   -3.31306
       H     7.56741  -14.13344    6.26679
       O     6.60954  -14.44609    6.24138
      H1     6.71529  -15.20339    6.82695
       H     5.43448  -15.70157    4.50670
       O     5.75313  -16.07648    3.67091
      H1     6.70815  -15.88586    3.63996
       H    11.71268  -10.81084   -0.11593
       O    12.03690  -11.01741   -1.05176
      H1    12.56085  -10.28467   -1.38876
       H     9.20059  -12.90949   -0.44581
       O     8.58720  -12.83675   -1.24942
      H1     8.84396  -12.11519   -1.81977
       H    12.34943  -12.87355    5.24153
       O    12.29116  -12.08334    5.81009
      H1    12.63266  -12.46725    6.63180
       H    13.15261  -13.69271    8.59870
       O    12.36576  -13.90707    8.10985
      H1    11.67442  -13.52682    8.66959
       H    12.76949  -17.64939   -2.69561
       O    12.77007  -18.65395   -2.59911
      H1    12.54641  -18.90126   -3.48719
       H     3.43896  -11.12430   -0.55665
       O     4.21160  -10.75125   -0.13139
      H1     4.94188  -11.45938   -0.02444
       H     8.85554  -15.24207    3.78311
       O     8.40346  -16.07401    3.48559
      H1     8.98610  -16.80382    3.31427
       H    16.42337  -12.86475    5.14977
       O    16.65363  -13.25820    6.01585
      H1    17.62749  -13.11626    6.14965
       H     3.25805  -12.32512    3.59239
       O     3.18645  -12.65923    2.71109
      H1     2.39397  -12.16081    2.37966
       H     4.06313  -16.92013    2.60179
       O     3.21093  -17.28757    2.26076
      H1     2.96370  -17.76822    3.06157
       H    10.84077  -18.52093    8.26333
       O    10.36276  -17.68865    8.12575
      H1    10.36763  -17.46434    9.06840
       H    11.15057   -7.44753    0.30870
       O    12.06357   -7.11159    0.17461
      H1    12.37304   -6.93038    1.10080
       H    11.45808  -16.74588    6.95962
       O    12.13457  -16.35034    6.51973
      H1    12.42964  -15.59127    7.09759
       H     8.90104  -18.34420    7.53939
       O     7.98249  -18.75625    7.33318
      H1     7.73051  -19.22895    8.12242
       H    15.90649  -14.18981    2.54837
       O    15.12047  -13.80295    2.93194
      H1    14.68576  -14.65152    3.10850
       H     8.80551  -14.59638    1.41788
       O     9.39862  -13.87430    1.13568
      H1    10.13671  -14.20321    1.65050
       H     9.08375  -18.67472   -3.23202
       O     9.86234  -18.25562   -3.41976
      H1    10.49415  -18.91129   -3.74891
       H    13.95668  -17.14154    3.38403
       O    14.09049  -16.46180    2.68869
      H1    13.18708  -16.20848    2.45789
       H    14.22684   -8.85377   -0.50260
       O    13.71367   -8.75655   -1.33892
      H1    13.10459   -8.09216   -0.97163
       H    12.33778  -18.56019   -0.14426
       O    13.03124  -19.02596    0.38012
      H1    13.74551  -18.38839    0.11641
       H    10.64743  -18.73467   -1.14653
       O    10.26015  -18.88721   -0.28208
      H1     9.96580  -19.81049   -0.21829
       H    11.32479  -15.32074    5.28425
       O    10.96022  -14.65273    4.72142
      H1    11.17444  -14.77390    3.83890
       H     6.94735   -8.57546   -2.15849
       O     7.90042   -8.54185   -2.00142
      H1     8.28313   -9.30814   -2.42131
       H     9.09551  -11.47892    6.55715
       O     9.16114  -10.46932    6.49858
      H1     9.07629  -10.22355    7.42832
       H     4.27359  -13.97467    1.89491
       O     4.85110  -14.67017    1.56332
      H1     5.34739  -15.02676    2.28099
       H     4.41910  -16.16998   -1.70732
       O     3.72883  -16.69191   -2.11739
      H1     3.44281  -16.18789   -2.90602
       H    10.69083  -10.72611   -2.28923
       O     9.75226  -10.60958   -2.63814
      H1     9.88285   -9.98088   -3.31690
       H     5.96659  -12.43693    6.66991
       O     5.33020  -11.80705    7.06003
      H1     5.28547  -11.12636    6.44810
       H    10.95189   -9.31275    5.63264
       O    11.03494   -8.52911    5.10351
      H1    11.74005   -8.08012    5.54344
       H    14.68017  -11.89228    3.04803
       O    14.44174  -10.94031    3.00407
      H1    13.50917  -10.89395    2.77234
       H     7.04350  -16.74657   -0.38935
       O     8.00377  -16.84115   -0.31210
      H1     8.22389  -17.81591   -0.43051
       H    10.74737  -17.99370    4.74994
       O    10.43804  -17.90831    3.86741
      H1    10.92534  -18.67981    3.45283
       H     9.34993   -5.82204    1.61901
       O     8.99539   -6.19432    0.79619
      H1     8.68543   -7.05759    1.14454
       H    12.89257  -15.36409   -2.91122
       O    12.11196  -16.00278   -2.82640
      H1    11.84449  -15.90370   -1.88414
       H    12.66042  -14.67029    1.43555
       O    11.87054  -15.16322    1.75582
      H1    11.48026  -15.55724    0.89436
       H     5.85439  -13.27268    0.92289
       O     6.21180  -12.46033    0.51488
      H1     6.71997  -12.85756   -0.24007
       H     6.16196  -18.22573    3.62587
       O     6.00935  -18.94555    4.22234
      H1     6.33130  -19.68442    3.66988
       H     8.07223   -8.64283    0.07670
       O     8.35092   -8.71708    0.98514
      H1     7.72228   -9.35392    1.36980
       H    17.05191  -16.99212    1.56370
       O    16.35609  -17.63043    1.32022
      H1    15.66845  -17.31202    1.93298
       H     9.68325  -13.89811    5.91961
       O     9.07581  -13.54782    6.57598
      H1     9.51016  -13.96154    7.34285
       H     7.18593   -9.22109    5.76486
       O     6.37531   -9.61500    5.48182
      H1     6.57698  -10.00172    4.58407
       H    13.51126  -12.90627    0.00140
       O    13.77798  -13.71407    0.47889
      H1    14.25966  -13.47011    1.24377
       H    15.73090   -9.08318    1.51689
       O    14.98639   -8.60382    1.19846
      H1    14.35381   -8.91860    1.77156
       H    10.16043  -15.26642   -0.83050
       O    10.75950  -15.97595   -0.50642
      H1    10.19654  -16.71374   -0.28398

