180
frame 0 | Written by MDAnalysis XYZWriter (release 2.4.3)
       H    16.20109    5.48584    4.92908
       O    15.27962    5.71640    5.12560
      H1    14.76526    5.31896    4.46540
       H    14.05619    3.67359   -1.47564
       O    14.39693    3.52567   -0.58958
      H1    15.31056    3.86087   -0.76009
       H    13.78580    3.22504   -8.45480
       O    14.43299    3.55745   -9.13159
      H1    15.29240    3.05217   -9.12956
       H    15.95340   10.15201   -0.75996
       O    16.77938    9.66372   -0.62392
      H1    16.77903    9.76381    0.34651
       H    12.98347    4.00717   -4.94550
       O    12.73884    3.07115   -5.03646
      H1    12.57016    2.93946   -5.98347
       H    15.77235    0.42701    4.24490
       O    16.04843   -0.38730    3.81293
      H1    16.09295   -0.01519    2.91361
       H    12.66917    6.83413   -4.65964
       O    12.21371    7.62525   -4.84495
      H1    12.78562    8.36080   -4.62666
       H    17.40719    7.90823   -0.72917
       O    17.50388    7.09615   -1.19642
      H1    17.50811    6.47243   -0.44907
       H    17.27302    7.22645    2.19664
       O    17.18102    6.52061    1.57294
      H1    16.20309    6.56013    1.47374
       H    16.43661    8.82536   -4.22695
       O    16.00010    9.57292   -4.64867
      H1    15.13963    9.72387   -4.19244
       H    15.41613    0.33610   -2.62214
       O    15.10420    0.15631   -1.70023
      H1    14.28630    0.56923   -1.56761
       H    13.81905    5.64193   -2.44765
       O    13.50672    4.83875   -2.84988
      H1    12.52834    4.88819   -2.64282
       H     7.77060    5.16711   -4.02168
       O     8.65250    5.58078   -3.76603
      H1     9.16091    5.20633   -4.49908
       H    18.61604   -0.66908   -0.12114
       O    18.50125   -0.64375   -1.05060
      H1    17.94648   -1.37961   -1.37478
       H    10.14443    4.80782   -6.87382
       O    10.11522    4.45001   -5.94724
      H1    10.23571    3.48403   -6.04884
       H    15.82703    3.06357   -4.96186
       O    15.46722    2.35193   -5.54240
      H1    14.51112    2.46414   -5.29768
       H    10.49721    7.80423   -3.97054
       O     9.74052    8.16792   -3.51683
      H1     9.18409    7.33821   -3.59095
       H    15.93821   -0.58489    0.13795
       O    16.34764   -0.26770    0.92786
      H1    16.97808    0.40838    0.58633
       H    15.09692    1.23364    1.03244
       O    14.50045    1.87454    1.44141
      H1    14.28213    2.45598    0.64243
       H    12.81509   10.79240   -4.04615
       O    13.36045   10.12498   -3.51951
      H1    12.87414   10.27306   -2.71347
       H    19.36756    4.91122   -6.61391
       O    18.65249    5.47601   -6.94785
      H1    18.72537    6.02470   -6.12613
       H    15.01419    4.13162   -6.10459
       O    14.65672    4.97971   -6.33048
      H1    14.76033    4.95017   -7.26019
       H    13.95562    3.60492    2.61816
       O    13.78335    4.55906    2.93633
      H1    12.95884    4.38656    3.38402
       H    12.32754    8.35807    2.13032
       O    13.22018    8.72836    1.95176
      H1    13.17805    8.75568    1.00238
       H     7.85528    3.71690   -0.67076
       O     8.76675    4.03706   -0.80517
      H1     9.07618    3.73234    0.04283
       H    10.03545    4.07954   -2.03517
       O    10.76949    4.36927   -2.57410
      H1    10.26379    4.93410   -3.14202
       H    11.62952    4.97435    4.84509
       O    11.60257    4.23424    4.21854
      H1    11.73088    3.40977    4.75293
       H    12.62088    1.99123    0.56395
       O    11.68691    1.99248    0.28754
      H1    11.19574    2.19792    1.09045
       H     8.47649    7.39628   -0.46868
       O     7.85324    6.66432   -0.38543
      H1     8.44836    5.90803   -0.55711
       H    16.34848    5.46002   -3.99065
       O    16.11938    4.54188   -3.84725
      H1    15.18835    4.64280   -3.60760
       H    14.10469    5.68292    1.59391
       O    14.45093    6.39896    1.07918
      H1    14.01905    7.15071    1.47003
       H    15.87582    1.14772   -4.64061
       O    16.26269    0.50463   -4.01720
      H1    17.19510    0.62804   -4.19703
       H    18.02605   -0.56269    2.28782
       O    19.00034   -0.57618    2.34348
      H1    19.11977   -0.05710    3.14127
       H     9.96160   -0.56671    2.12659
       O    10.24679   -0.61431    3.03842
      H1    11.21004   -0.41530    2.95358
       H    11.10240    2.18568   -4.99078
       O    10.36594    1.63581   -5.35514
      H1    10.70820    1.15246   -6.07922
       H    10.47848    2.84276    3.22333
       O    10.52830    2.12051    2.57932
      H1    10.44002    1.26480    3.11822
       H    18.10912    4.50909    5.91451
       O    17.81615    4.96726    5.11648
      H1    17.87374    4.30984    4.38758
       H    10.55298    7.06361    2.39620
       O    10.59760    7.98893    2.76731
      H1     9.68040    7.93363    3.04664
       H    15.36990    7.30679   -2.01691
       O    14.50467    7.05503   -1.64136
      H1    14.74806    6.63570   -0.77389
       H    19.49935    2.74293    3.44888
       O    18.59528    2.81232    3.07773
      H1    18.09132    2.15421    3.58773
       H    10.27412    9.40023   -2.14241
       O    10.61362    9.44979   -1.20304
      H1    10.82181   10.45214   -1.09212
       H    11.40006    0.00367    0.61668
       O    10.89593   -0.68001    0.18042
      H1    11.26036   -0.75314   -0.74143
       H    12.94829   -1.41607   -2.06803
       O    12.12327   -1.11255   -2.40633
      H1    12.15740   -0.15904   -2.55445
       H    11.33257    4.87812    2.35861
       O    11.23734    5.54941    1.64361
      H1    11.71858    5.00370    0.98728
       H    15.08205   -3.64363   -0.94065
       O    14.48623   -3.28448   -1.71714
      H1    15.15099   -2.95476   -2.29138
       H    12.55972    2.54550   -3.16653
       O    12.35345    1.85519   -2.55721
      H1    11.84550    2.34288   -1.87090
       H    19.37043    1.12702   -7.60643
       O    18.48691    0.96240   -7.16147
      H1    18.63633    1.40263   -6.33210
       H    19.09407    2.16671   -3.91990
       O    18.76189    1.47428   -4.52636
      H1    19.52806    0.83806   -4.42764
       H    12.11789    9.19049   -0.74091
       O    13.08531    9.27279   -0.58506
      H1    13.42793    8.49261   -1.04363
       H    15.44084   -1.48969   -4.70028
       O    15.41484   -2.32004   -5.24828
      H1    15.83632   -1.93950   -6.02053
       H     8.59393    2.03763   -3.12181
       O     8.36509    1.22279   -3.57145
      H1     9.00521    1.36737   -4.33414
       H    11.73944    2.91152   -8.39042
       O    12.16408    2.35817   -7.66922
      H1    11.95795    1.47831   -7.97479
       H     7.88853    0.85006    0.42276
       O     7.96471    0.88493   -0.55921
      H1     8.84962    0.52243   -0.52699
       H    12.68148    1.44625    5.87890
       O    13.00232    1.76821    5.02308
      H1    13.07064    0.98167    4.45404
       H    17.27113    3.83708   -1.99974
       O    17.13554    3.76212   -1.02000
      H1    17.99068    4.17507   -0.69255
       H    13.52048    0.43262    2.63813
       O    13.17869   -0.25915    3.19838
      H1    13.68489   -0.99694    2.94957
       H    19.62828    4.20777    0.72491
       O    19.22853    4.93949    0.25712
      H1    18.57412    5.17310    0.93648
       H    14.82894    1.88506    5.43204
       O    15.70018    2.07628    4.97312
      H1    16.39128    1.92066    5.70156
       H    18.11581    7.50553   -4.14660
       O    17.27716    7.14982   -3.92374
      H1    17.39658    6.94740   -2.95494
       H    18.25777    2.25261    1.36824
       O    18.30089    1.83343    0.53450
      H1    17.74614    2.37376   -0.13996

