180
frame 10 | Written by MDAnalysis XYZWriter (release 2.4.3)
       H    -1.35156   -4.19054   -0.64267
       O    -2.17667   -4.32920   -0.18541
      H1    -2.19414   -3.62262    0.45737
       H    -3.09660   -5.74718    5.12124
       O    -3.29234   -4.89330    5.58329
      H1    -4.21773   -5.06138    5.83737
       H   -10.87591   -3.57138   -3.38847
       O   -11.33230   -3.48454   -2.54691
      H1   -12.21951   -3.19161   -2.92313
       H    -7.10742   -8.06570    8.55989
       O    -7.84243   -8.33276    9.14281
      H1    -8.29231   -7.47909    9.42282
       H    -5.85328    0.03314    8.62097
       O    -5.92936   -0.78230    8.07922
      H1    -6.76078   -0.64794    7.62444
       H    -9.96396   -2.42574    1.20653
       O    -9.50997   -1.67787    0.79227
      H1    -8.69641   -2.12792    0.62402
       H    -1.57287  -10.71698    6.86538
       O    -1.79088  -10.36838    5.97007
      H1    -1.63571   -9.41717    6.04146
       H   -10.61797   -2.22143    7.34749
       O   -11.53057   -2.52944    7.36093
      H1   -11.45431   -2.90684    8.25523
       H   -10.12279   -9.20372    1.69742
       O   -11.01762   -8.93514    1.56137
      H1   -11.46662   -9.27207    2.35721
       H    -4.75576   -9.74227    2.38958
       O    -5.32108  -10.49064    2.67891
      H1    -6.19146  -10.08126    2.62442
       H    -4.91632   -5.44460   -1.60074
       O    -5.13519   -5.45429   -0.67825
      H1    -4.50551   -5.99509   -0.25807
       H    -2.48874   -0.84208   -1.00310
       O    -2.66395   -0.87841   -0.05593
      H1    -3.41347   -0.24818    0.17864
       H    -0.85589   -7.64120    5.41455
       O    -1.65883   -7.65912    5.88725
      H1    -1.31400   -7.31712    6.67748
       H   -11.57457   -3.63396    1.50321
       O   -10.77091   -4.17216    1.47611
      H1   -10.56930   -4.60450    2.27962
       H    -5.39323   -1.25104    3.44693
       O    -5.03094   -1.59181    2.63616
      H1    -5.82073   -2.12404    2.30181
       H    -5.41619   -6.78945    7.36263
       O    -5.67013   -7.55995    7.90570
      H1    -4.88828   -7.65166    8.49269
       H   -10.53701   -6.64166    6.50096
       O   -11.36014   -7.11988    6.62220
      H1   -12.01976   -6.42010    6.34375
       H    -7.28064   -6.51457    0.01858
       O    -7.68255   -7.00107    0.72348
      H1    -7.65703   -6.35354    1.47264
       H    -8.35755   -9.73245    5.39008
       O    -9.14035   -9.21431    5.23855
      H1    -9.44179   -9.14650    6.16606
       H   -11.56263    0.24694    4.14255
       O   -11.01444   -0.47407    4.42007
      H1   -11.59984   -1.25474    4.40874
       H   -12.12652    0.96364    0.85762
       O   -11.69664    0.34422    1.42448
      H1   -10.86762    0.13465    0.95327
       H   -12.31777   -6.75199    9.77409
       O   -11.54036   -7.36671    9.67754
      H1   -11.73649   -7.70275    8.77083
       H    -9.69417   -0.00325    3.31628
       O    -8.86987    0.01613    2.81111
      H1    -9.15684   -0.57904    2.13716
       H    -4.13390   -3.11873    2.94892
       O    -4.09183   -4.09641    2.83175
      H1    -3.67998   -4.30268    3.71031
       H    -2.65678   -7.58469    0.23487
       O    -3.12895   -7.02311    0.89841
      H1    -2.68868   -6.13515    0.79383
       H    -6.82820   -3.61328    1.58481
       O    -6.82929   -2.77469    1.04715
      H1    -6.17929   -3.05008    0.31341
       H   -14.04680   -4.19645    2.18893
       O   -13.49329   -3.45810    2.42231
      H1   -14.00319   -2.70941    2.03810
       H    -6.19934    0.17876   -2.48939
       O    -6.31077   -0.73058   -2.81508
      H1    -5.78702   -1.22611   -2.15816
       H   -10.09364   -8.21402   -1.72651
       O   -10.55721   -8.99431   -2.04022
      H1   -10.48011   -8.66041   -2.98479
       H    -4.25081   -0.82291    6.03447
       O    -3.47465   -0.85445    5.46632
      H1    -2.87250   -1.33073    6.06336
       H   -10.34060  -10.83445    4.85449
       O   -10.98037  -11.58050    4.58112
      H1   -10.58021  -12.40853    4.92858
       H   -10.01392   -6.23383   -1.19005
       O    -9.24221   -6.71965   -1.58777
      H1    -8.81614   -7.04605   -0.79696
       H    -6.00644   -4.82665    2.84450
       O    -6.94891   -5.01111    2.65492
      H1    -7.31503   -5.52520    3.37144
       H    -8.31105   -2.22293    9.43570
       O    -8.70718   -2.90996    8.90215
      H1    -8.21630   -3.71097    9.17354
       H    -3.88088   -2.46232   -0.86578
       O    -4.80453   -2.77364   -0.99660
      H1    -4.65709   -3.73267   -0.91106
       H   -12.98452   -7.63293    2.20573
       O   -13.00823   -6.66795    2.28045
      H1   -13.92271   -6.40158    2.38286
       H   -13.25450   -4.01617    6.57262
       O   -13.08876   -4.72568    5.91097
      H1   -13.93439   -4.85987    5.38640
       H    -7.69674   -8.57753    1.80432
       O    -7.87826   -9.56614    1.83396
      H1    -8.14573   -9.71407    0.89364
       H    -9.04312   -5.82285    8.68033
       O    -9.04460   -6.07709    9.64759
      H1    -9.93623   -6.52933    9.70564
       H    -8.30799   -6.61406    5.78291
       O    -8.77750   -5.99086    6.31653
      H1    -8.37525   -5.12650    6.03566
       H   -11.77112   -5.90374    3.47494
       O   -11.07164   -5.57993    4.11350
      H1   -11.66732   -5.07324    4.72039
       H    -7.68891   -2.83147    5.25533
       O    -7.77792   -3.43442    5.98190
      H1    -8.04955   -2.80526    6.62436
       H    -5.11107   -4.19891    7.52066
       O    -5.57573   -4.90526    7.01165
      H1    -6.27602   -4.42398    6.53763
       H   -12.02316   -4.58390   -1.23867
       O   -12.38226   -5.29130   -0.68876
      H1   -11.98108   -5.08865    0.16629
       H    -7.76180   -0.49914    3.95873
       O    -7.00523   -0.71168    4.52935
      H1    -6.80699    0.12946    4.92978
       H    -7.05635  -10.54893    7.17281
       O    -6.71483   -9.99180    6.49331
      H1    -6.16632   -9.33736    7.00061
       H   -12.05073   -8.48325    4.52965
       O   -12.45408   -9.13718    3.95859
      H1   -12.33266  -10.01799    4.34469
       H    -1.96914   -3.66095    6.12619
       O    -1.27562   -2.94359    6.10312
      H1    -1.15418   -3.01340    5.14077
       H    -3.25033  -10.81264    5.27145
       O    -3.77320  -11.52883    4.80844
      H1    -4.34193  -11.03432    4.14322
       H   -10.50210   -8.59336    7.40406
       O   -10.06494   -9.33077    7.81214
      H1    -9.30385   -8.89353    8.29275
       H    -6.63324    0.83652    1.04528
       O    -7.36141    1.46179    1.01468
      H1    -7.91259    1.06436    1.69818
       H    -4.70362   -7.90684   -3.09336
       O    -4.47839   -6.97489   -3.05823
      H1    -3.59254   -6.85000   -2.72522
       H    -5.03738  -11.55369   -0.18976
       O    -5.97516  -11.65163    0.11849
      H1    -5.73159  -11.35052    1.02946
       H    -9.42126   -6.44174    3.92481
       O    -8.59399   -6.97526    3.73148
      H1    -8.68072   -7.75889    4.29226
       H    -4.22353   -3.49495    9.56809
       O    -3.96782   -3.07923    8.70173
      H1    -4.42438   -2.22928    8.69223
       H    -4.65188    0.07328    1.93398
       O    -4.47728    0.59554    1.16044
      H1    -4.10417    1.41310    1.56656
       H    -8.93331   -0.14320    7.52902
       O    -8.58663   -0.86966    7.02697
      H1    -8.56177   -0.48749    6.15049
       H    -9.66824   -1.43552   -1.01128
       O   -10.15038   -1.08641   -1.74667
      H1   -10.68411   -1.83175   -2.03235
       H    -0.76232   -5.95865    2.27802
       O    -0.96973   -5.13723    2.80446
      H1    -1.11814   -4.54083    2.02649
       H    -1.48853   -9.06266    2.55111
       O    -1.21197   -8.17488    2.31902
      H1    -2.01932   -7.80318    2.06334

