180
frame 12 | Written by MDAnalysis XYZWriter (release 2.4.3)
       H   -16.26847   14.24165    4.23781
       O   -16.25120   14.11243    5.21504
      H1   -16.92996   14.62979    5.63290
       H   -12.21005   15.12227    1.10106
       O   -12.44945   15.84064    0.52340
      H1   -12.94850   15.40211   -0.16581
       H    -8.66603   10.48135   13.35240
       O    -9.22530   11.27784   13.50771
      H1    -8.64098   12.02248   13.33078
       H   -11.87271   13.80381   14.04725
       O   -11.91638   12.86943   13.69697
      H1   -10.97698   12.44977   13.67090
       H    -7.23793   18.83743    1.09522
       O    -8.13615   18.68810    0.76875
      H1    -8.70365   18.69763    1.53832
       H    -9.11759    8.51199    7.20716
       O    -8.65690    7.63606    7.05568
      H1    -8.96046    6.95149    7.66218
       H    -6.22389   18.10137    4.77114
       O    -5.36444   17.71609    4.51388
      H1    -5.55679   17.37426    3.65781
       H   -10.36373   16.46923    7.28524
       O   -10.23672   15.68560    7.80760
      H1   -10.22761   14.97522    7.13656
       H    -5.50343   14.94835   12.43150
       O    -5.77624   14.71560   13.34591
      H1    -6.68326   14.41533   13.29102
       H   -10.11789   16.81244   12.60421
       O   -10.02509   15.92119   12.20973
      H1   -10.86004   15.55903   11.94211
       H   -12.45061   18.04488    7.05577
       O   -11.56532   18.18882    6.70851
      H1   -11.48632   18.92638    6.07870
       H    -7.66947   14.10212    8.19635
       O    -7.56842   14.81454    7.56418
      H1    -8.20848   15.40301    7.99696
       H   -13.30135   16.32534    8.20063
       O   -13.71144   17.23668    8.29805
      H1   -13.44109   17.40914    9.22320
       H   -15.07212   17.29661    1.85900
       O   -14.86605   17.21767    2.80726
      H1   -15.33844   16.47329    3.14820
       H   -11.26573    9.32125    8.29418
       O   -10.64110    9.71305    7.64914
      H1   -11.10953    9.86500    6.81816
       H    -8.64270   18.13076    5.01409
       O    -7.84497   18.65804    5.24252
      H1    -7.84357   18.62406    6.19458
       H    -3.87041   16.51228    7.89322
       O    -2.98926   16.53106    8.43492
      H1    -2.35463   15.82228    8.22742
       H    -8.69915   14.69516   12.51083
       O    -8.24994   13.82523   12.52970
      H1    -7.65239   13.97946   11.75018
       H   -10.93010   18.48667    1.81775
       O   -10.32296   18.68222    2.50538
      H1   -10.18768   17.81809    2.96732
       H    -8.16373   10.56422    3.03070
       O    -8.44958    9.68759    3.20700
      H1    -8.57822    9.23247    2.34821
       H   -13.06721   16.22218   13.74981
       O   -13.91773   16.61731   13.32856
      H1   -14.47754   15.83859   13.28563
       H   -16.08823   18.32675    5.13293
       O   -16.98600   18.38801    4.87647
      H1   -17.15089   17.84191    4.07941
       H    -9.28928   15.92007    4.10292
       O    -9.71342   16.75684    4.29551
      H1   -10.53565   16.60987    4.78064
       H    -5.79776   11.73899   12.80785
       O    -6.13768   11.44714   11.97530
      H1    -5.37512   11.29848   11.43115
       H   -13.64425   17.27983   11.46882
       O   -13.41957   18.03698   10.92583
      H1   -12.66778   18.50394   11.36984
       H   -10.96668   15.50814   14.16989
       O   -11.79564   15.48238   14.69271
      H1   -11.57155   16.14165   15.37439
       H   -11.78962   13.91548   11.34030
       O   -12.12006   14.74378   10.98217
      H1   -11.61675   14.69546   10.17794
       H    -8.05488   16.97548   15.38489
       O    -9.04976   16.80481   15.38426
      H1    -9.48779   17.23969   14.63669
       H    -6.54007   18.58312    7.77106
       O    -7.40700   18.24879    8.06900
      H1    -8.00348   18.95303    8.39642
       H    -5.97993   11.84178    3.32566
       O    -5.75845   12.24728    2.47946
      H1    -5.78333   11.44708    1.92252
       H   -13.22583   14.09725    7.97036
       O   -12.91900   14.93014    7.59885
      H1   -11.99200   14.86451    7.50875
       H    -9.55012   13.62798    4.92865
       O    -8.94289   13.80131    4.12098
      H1    -9.45324   13.61061    3.35911
       H   -11.63648   13.00641    5.99004
       O   -10.78544   13.34566    6.31769
      H1   -10.54849   12.68462    6.96652
       H   -14.86035   18.81385   12.34620
       O   -15.55561   19.03077   12.94898
      H1   -15.28966   18.71580   13.80961
       H   -10.09654    9.82366    4.23201
       O   -10.92914    9.79780    4.70037
      H1   -11.19388    8.83258    4.82408
       H   -14.69977   17.74162    6.64131
       O   -14.51644   18.15141    5.77849
      H1   -14.04086   17.41121    5.33451
       H    -3.89361   15.20441   10.52565
       O    -4.68656   15.46692   11.01208
      H1    -5.06034   16.35147   10.79729
       H    -9.07328   18.75046   13.19986
       O    -9.89999   18.40815   13.55030
      H1   -10.55818   18.97024   13.12918
       H   -13.82334   14.60038   11.06195
       O   -14.81343   14.39483   11.11597
      H1   -15.32600   14.83430   10.39405
       H    -6.54548   16.74527    1.62433
       O    -5.66455   17.08720    1.87037
      H1    -5.43315   17.82903    1.30714
       H   -15.85060   19.75668    9.61240
       O   -14.86737   19.96028    9.73027
      H1   -14.45543   19.30265   10.31315
       H    -7.30640   19.10718   11.67484
       O    -7.82146   19.60544   12.34513
      H1    -8.63309   19.96830   11.92151
       H   -14.23990   13.56905    5.22617
       O   -13.51111   12.95744    5.07660
      H1   -13.86513   12.12778    5.43931
       H    -8.07404   14.90668    1.52798
       O    -7.97440   15.82484    1.71398
      H1    -8.58161   16.29654    1.10861
       H   -15.20248   10.16864    5.66739
       O   -14.26882   10.32669    5.77739
      H1   -13.95058   10.18202    4.83956
       H   -16.92192   15.77088    9.04752
       O   -16.15941   16.05889    9.57023
      H1   -15.58247   16.58471    8.97885
       H   -12.72758   15.13977    5.34872
       O   -12.53310   15.93879    4.88110
      H1   -12.52687   15.73811    3.98285
       H    -5.09914   11.02319    9.31215
       O    -4.39423   10.69291    9.90801
      H1    -4.68279    9.76871   10.16569
       H    -5.37193   18.48812   10.53044
       O    -6.19921   17.96543   10.45877
      H1    -6.49137   17.92894    9.50702
       H    -6.38937   12.86928   10.62558
       O    -6.72461   13.57259   10.07663
      H1    -6.10616   14.27584   10.19270
       H    -9.38293   12.07447    9.17452
       O    -9.11911   11.95187    8.24404
      H1    -9.52507   11.06520    7.88279
       H    -5.39944   20.24062    7.00770
       O    -5.00268   19.46832    7.38736
      H1    -4.48318   19.20495    6.58034
       H    -5.33774   16.71489    6.09981
       O    -5.25800   16.03947    6.75198
      H1    -6.20970   15.79003    6.93130
       H    -9.64692   12.64101   11.43300
       O   -10.32287   12.76176   10.72868
      H1   -11.00482   12.10084   10.81702
       H    -6.43115   10.69560    7.99151
       O    -6.26531   11.62337    8.13454
      H1    -7.13689   11.93289    8.44788
       H   -11.60851   13.18866    1.75888
       O   -11.00550   13.93028    2.05891
      H1   -10.45481   14.13219    1.21597
       H   -13.20784   11.41059    9.96169
       O   -12.67875   10.97827   10.68198
      H1   -12.37191   10.14171   10.33173
       H   -14.26441   12.95416    9.67776
       O   -14.04805   12.34187    8.95973
      H1   -14.85675   12.07316    8.59470
       H    -4.66938   14.65783    5.77859
       O    -4.14379   13.91075    5.52053
      H1    -3.48836   14.33058    4.96170
       H    -5.32050   12.61185    5.40485
       O    -6.03620   11.94150    5.33252
      H1    -6.58287   11.98470    6.06762

