180
frame 1 | Written by MDAnalysis XYZWriter (release 2.4.3)
       H    -2.08339    0.30751  -13.76316
       O    -1.78295   -0.19542  -12.98367
      H1    -2.58808   -0.06488  -12.40380
       H    -7.66515    1.60540   -5.69954
       O    -7.80588    2.56395   -5.66400
      H1    -7.72261    2.76407   -6.60525
       H    -2.26060   -3.40530  -13.67061
       O    -2.57066   -2.58535  -14.13136
      H1    -2.22224   -1.88933  -13.52383
       H    -3.73235    1.81550  -18.06244
       O    -2.87288    1.90502  -17.60226
      H1    -2.47412    1.12991  -17.92287
       H    -6.55692    2.18083  -17.77719
       O    -7.24455    1.96856  -17.11002
      H1    -7.17386    1.00382  -17.18414
       H    -8.20960    0.77699   -9.31420
       O    -8.40178   -0.13009   -9.65062
      H1    -8.69764   -0.55523   -8.85238
       H    -6.14377   -1.92871  -10.43092
       O    -6.95785   -1.96608  -10.91282
      H1    -7.50701   -1.18939  -10.63753
       H     2.10720    1.76726   -9.19494
       O     1.28520    2.36570   -9.37354
      H1     1.04508    2.02070  -10.26651
       H    -2.59275    3.44743  -12.42915
       O    -3.33351    3.86900  -12.95683
      H1    -4.12378    3.56809  -12.50782
       H    -4.90631    1.42085  -14.78435
       O    -5.85723    1.35651  -14.74381
      H1    -6.16472    1.50638  -15.63542
       H    -0.58545   -2.44982   -6.23669
       O     0.01919   -3.12940   -5.98301
      H1    -0.04105   -3.63547   -6.79909
       H    -4.17111    0.30283   -5.21882
       O    -3.44457   -0.26484   -4.92664
      H1    -2.67859    0.40389   -4.84227
       H    -6.34446    6.08447  -16.39616
       O    -6.77628    6.58625  -15.69977
      H1    -6.67643    5.95906  -14.92278
       H    -5.41739   -2.01032  -15.03338
       O    -5.24185   -1.30301  -15.67614
      H1    -5.25981   -0.51158  -15.15426
       H    -4.33446   -1.02243  -17.79945
       O    -4.34797   -0.64886  -18.70925
      H1    -5.08297   -1.20544  -19.03627
       H    -9.10253   -4.07664  -10.67417
       O    -8.18058   -4.36082  -10.43652
      H1    -7.67139   -3.49500  -10.51127
       H     0.72438   -2.59236  -12.67530
       O     0.60599   -3.00698  -11.77008
      H1     1.12537   -3.76557  -11.88317
       H    -1.35895    4.16593  -10.73234
       O    -1.53601    3.23610  -10.91238
      H1    -1.92311    2.92672  -10.05169
       H     1.39876    1.48417  -13.68441
       O     1.76288    1.58490  -14.60958
      H1     2.14776    2.44426  -14.51135
       H    -0.33348    0.94077  -12.45750
       O     0.24600    1.70621  -12.16913
      H1    -0.45630    2.32398  -11.74057
       H    -7.03179   -5.77310  -12.94580
       O    -6.30890   -5.19838  -12.58656
      H1    -6.60898   -5.13985  -11.71379
       H    -6.53118    5.73448   -8.25158
       O    -6.95652    6.39360   -8.83037
      H1    -7.61390    6.82629   -8.26033
       H    -3.33179   -5.39995  -11.85344
       O    -3.34936   -6.28778  -11.41362
      H1    -4.09637   -6.29366  -10.73865
       H     0.88865   -1.76861   -8.53957
       O     0.67668   -1.33661   -9.34056
      H1     0.51212   -1.95272  -10.05201
       H    -9.78688    0.82081  -10.33553
       O   -10.51973    1.16952  -10.90404
      H1   -11.39618    0.83935  -10.62274
       H    -8.37273   -2.82209  -13.78283
       O    -7.76478   -2.03608  -13.51806
      H1    -7.23994   -2.30330  -12.75678
       H    -0.89666   -2.11700  -16.48620
       O    -1.22195   -3.00110  -16.52647
      H1    -1.67658   -3.09155  -15.65687
       H    -7.27519    4.24608  -13.42194
       O    -6.76439    5.07720  -13.50443
      H1    -7.33850    5.67484  -12.97044
       H    -3.26850    2.26163  -15.64269
       O    -3.14881    1.70952  -14.83165
      H1    -3.16522    2.46307  -14.24684
       H    -3.41966   -2.38419   -5.16635
       O    -3.57021   -3.33211   -5.10534
      H1    -4.22158   -3.48498   -5.87215
       H    -1.10283   -4.08560  -12.03110
       O    -1.74429   -4.52522  -12.65075
      H1    -1.40883   -5.45132  -12.56347
       H    -2.64422   -0.82086   -6.49047
       O    -1.80730   -1.14304   -6.80496
      H1    -1.44370   -0.43191   -7.29938
       H    -3.63479    6.68079  -12.96655
       O    -3.58301    6.77786  -12.02968
      H1    -4.41591    7.20155  -11.83052
       H    -9.46588   -0.38623   -6.04269
       O    -9.84156   -0.35556   -6.91486
      H1   -10.18925    0.51468   -6.81770
       H    -7.21711   -4.94817   -9.01079
       O    -6.91439   -5.08133   -8.10141
      H1    -7.70647   -5.45562   -7.73073
       H    -3.79446    2.13534   -6.82953
       O    -4.49086    1.90211   -6.17290
      H1    -5.07346    1.26414   -6.62164
       H     0.08831    1.32226   -8.61799
       O    -0.55717    0.66688   -8.29978
      H1    -0.16198   -0.02610   -8.93518
       H    -5.53595    3.51192   -7.22371
       O    -6.01010    3.88874   -7.95252
      H1    -5.31053    4.08680   -8.59921
       H    -4.15000   -1.04081  -12.04564
       O    -3.87600   -0.46075  -11.37048
      H1    -4.42529    0.31083  -11.32279
       H    -8.48784    2.77775  -13.07718
       O    -7.54085    2.66530  -12.77384
      H1    -7.12061    2.19796  -13.55348
       H   -10.86047    3.10320   -9.06505
       O   -10.41636    3.75177   -9.65176
      H1   -10.66862    3.41752  -10.51673
       H    -5.72412   -6.10851   -8.65322
       O    -5.01625   -6.47927   -9.21021
      H1    -4.73802   -7.10464   -8.51256
       H    -8.74573   -1.86942  -16.43508
       O    -9.40934   -2.58378  -16.68563
      H1    -9.74130   -2.23851  -17.55468
       H    -5.27793    5.46982  -10.10761
       O    -4.48227    4.93382  -10.16271
      H1    -4.01121    5.34173  -10.92962
       H    -9.12764   -0.80549  -13.39832
       O    -9.66349   -0.01618  -13.40187
      H1    -9.74872    0.20516  -12.44628
       H    -2.11003   -3.40279   -7.99233
       O    -2.59049   -4.10300   -8.42339
      H1    -3.16359   -4.47350   -7.73086
       H    -7.29810    2.80145   -8.42862
       O    -8.05579    2.28074   -8.72965
      H1    -8.63398    2.99053   -9.01088
       H    -0.06653    6.01679  -10.63231
       O    -0.82058    5.81460  -10.07901
      H1    -1.45336    6.48692  -10.14764
       H    -7.95503    0.09711  -15.22268
       O    -7.79622   -0.51620  -15.97549
      H1    -6.95308   -0.90698  -15.73059
       H    -2.14211    5.29926   -6.85235
       O    -3.10286    5.48277   -6.78519
      H1    -3.18413    6.04676   -7.57423
       H   -10.95009    3.12562  -13.02252
       O   -10.26243    3.46728  -12.49885
      H1   -10.06051    2.70102  -11.88964
       H    -2.79046    3.54435   -7.73870
       O    -2.79434    2.61438   -8.08006
      H1    -1.90940    2.26337   -7.87220
       H    -4.33329   -2.83665  -13.80517
       O    -4.99236   -2.64651  -13.12398
      H1    -5.56690   -3.43042  -13.18402
       H     0.06842    2.20366  -15.52450
       O    -0.41777    2.45146  -16.36553
      H1    -1.26938    1.94019  -16.25275
       H    -3.98859   -1.88533  -10.08596
       O    -4.50736   -2.72809   -9.85401
      H1    -3.83234   -3.28574   -9.50078
       H    -4.78773    3.04696  -10.78846
       O    -4.99333    2.26399  -11.34644
      H1    -5.91828    2.39520  -11.41058
       H    -6.20125   -0.68712   -6.55676
       O    -6.37729    0.19914   -6.27518
      H1    -6.45931   -0.04094   -5.29097
       H    -3.57037    5.36006  -14.32747
       O    -3.76195    6.24437  -14.75462
      H1    -2.94988    6.37458  -15.31703
       H    -4.95063   -2.42599   -8.10110
       O    -5.34908   -2.23012   -7.23612
      H1    -6.05468   -2.91231   -7.22963
       H     1.25155   -3.16561  -14.91612
       O     0.83656   -2.37831  -14.50503
      H1     0.76314   -1.74022  -15.30064

