180
frame 5 | Written by MDAnalysis XYZWriter (release 2.4.3)
       H     4.77914   11.46718   15.16148
       O     5.67817   11.43437   14.69384
      H1     5.97278   12.32746   14.88711
       H    -0.46740    5.92611    6.83475
       O     0.00925    5.12859    7.11763
      H1     0.98895    5.37971    6.89286
       H     9.35717    8.88608   10.52226
       O     9.17232    9.54825   11.19213
      H1     8.20836    9.46511   11.33233
       H     8.57987    8.37150    7.35239
       O     9.35581    7.85034    7.15958
      H1     9.70325    7.57188    7.98459
       H    -0.94506   11.35188   11.27249
       O    -0.20420   11.60972   10.71128
      H1     0.36880   10.82952   10.71365
       H     1.99365   10.64606   14.37057
       O     2.01881   11.32835   13.67085
      H1     1.12216   11.18574   13.27510
       H     3.96260    5.59821   10.23187
       O     4.89656    5.21403   10.13809
      H1     4.68467    4.74486    9.32815
       H     3.32791   11.48097   12.45655
       O     3.88540   11.68100   11.64037
      H1     3.79008   10.75171   11.29215
       H     4.17138    9.13375   10.14552
       O     3.55964    8.79922   10.75311
      H1     4.14552    8.40135   11.46226
       H    -0.63796    9.47824    4.99460
       O    -1.48169    9.14420    4.76237
      H1    -1.21047    8.53504    4.10608
       H    -1.46083   11.13310    7.66003
       O    -1.85960   11.36121    8.50887
      H1    -1.16710   11.34912    9.19517
       H     2.85552   14.39528    1.29132
       O     2.65534   13.72942    1.96774
      H1     3.07270   13.95690    2.84450
       H     5.48914    7.24342   12.56041
       O     4.54798    7.45552   12.74210
      H1     4.08647    6.64166   12.48246
       H     1.81333    6.30792   11.54707
       O     2.09257    5.56601   11.00928
      H1     1.89888    4.84803   11.56267
       H     0.07781   12.75493    3.40941
       O     0.00118   12.38081    4.27281
      H1    -0.97888   12.27060    4.19017
       H     3.92141   11.40904    1.50515
       O     4.50394   11.91859    0.95767
      H1     4.05395   12.79716    0.94808
       H     7.52048    7.72057   11.10528
       O     7.41236    7.40227   11.98931
      H1     8.24854    7.58405   12.44119
       H     0.81899   15.40725    6.10809
       O     0.04254   15.03865    5.72140
      H1     0.27296   14.10114    5.73322
       H     8.60514   13.47348    4.32320
       O     9.23170   13.67899    3.64216
      H1     9.67280   14.37068    4.17709
       H     0.26381   10.29257    7.33779
       O     0.09194   10.74123    6.50440
      H1     0.69896   11.51909    6.45012
       H    -1.53911    6.54922   10.28513
       O    -0.85727    6.56529   10.95021
      H1    -0.42231    7.40095   10.79311
       H     7.88791   13.63177   13.09186
       O     8.64428   14.07721   13.41722
      H1     8.59127   15.02828   13.18415
       H     5.69535   11.05653    9.13974
       O     4.92438   10.42653    8.98242
      H1     4.62799   10.55685    8.09431
       H    10.08444   11.47133    4.32934
       O     9.76974   10.63386    4.03745
      H1    10.51808   10.04224    4.02392
       H     7.38441    7.59735    3.19526
       O     6.62445    6.93538    3.49997
      H1     6.60702    6.38319    2.68617
       H     2.25220   13.45622    7.38152
       O     1.69979   13.08912    6.72372
      H1     2.03428   13.26981    5.79990
       H     1.57114   14.28946   10.95165
       O     1.85812   14.91063   11.62279
      H1     0.98325   15.27328   11.97589
       H     9.16552   14.25215    7.97209
       O     9.32141   15.19853    8.16203
      H1     8.59380   15.62525    7.77840
       H     7.13161   17.14987    6.49701
       O     7.74667   16.66540    5.87863
      H1     7.18816   16.10003    5.35566
       H     5.71126   13.91282    6.81136
       O     4.99536   14.45852    7.07635
      H1     4.49761   14.61757    6.28297
       H     9.69002   12.17894    8.56137
       O     9.03158   12.53643    7.95195
      H1     8.19896   12.36282    8.41028
       H     1.82189    5.14307    5.07616
       O     2.34807    5.49832    5.79949
      H1     2.08455    6.43851    5.82838
       H     5.74075    8.78482   15.49087
       O     6.17137    8.10019   14.99571
      H1     5.70762    8.39836   14.20843
       H     2.69972   12.41004   10.02353
       O     2.00303   12.99667    9.65607
      H1     1.10348   12.62822    9.89669
       H     7.88840   12.43220    6.28529
       O     7.38784   12.98994    5.68809
      H1     6.65218   12.48688    5.27507
       H     3.97724   10.36647    5.34152
       O     4.87716   10.65342    5.59124
      H1     5.52589   10.02927    5.21660
       H     5.03881    8.62626    2.46328
       O     4.48976    8.99392    1.74218
      H1     3.71652    8.38962    1.73677
       H     0.95251    8.50390    7.59878
       O     0.24203    8.66481    8.27432
      H1    -0.51649    8.24533    7.80467
       H     5.20639    8.81013    7.07843
       O     4.64793    8.12357    7.54981
      H1     5.01631    7.36324    7.07844
       H     6.65046   12.60535   10.44772
       O     6.51705   12.69376    9.46972
      H1     5.69155   13.24313    9.48305
       H    10.56467    8.21623    5.69020
       O    11.27254    8.52806    5.09788
      H1    11.29828    7.76130    4.47699
       H     4.34426   14.65405    8.79769
       O     4.19717   14.55670    9.72843
      H1     3.33833   14.05417    9.84167
       H    -2.35335    7.09569    6.84170
       O    -1.35775    7.23357    6.62928
      H1    -1.27402    7.98846    6.02573
       H    10.05195    6.19491   10.49086
       O     9.61513    6.84392    9.86752
      H1     8.80928    6.35946    9.68497
       H     0.68555    7.04116   13.34359
       O     1.56118    7.37051   13.12621
      H1     2.14498    6.99028   13.80000
       H     3.90150   15.26072    4.69693
       O     4.15712   14.35092    4.50514
      H1     4.96129   14.39529    3.99309
       H     6.17990    8.44612    8.60088
       O     6.91461    8.17076    9.13953
      H1     6.81599    7.20883    9.20367
       H     2.80660    8.35644    6.63555
       O     1.91969    8.12475    6.14808
      H1     1.85735    8.78078    5.43757
       H     5.18242    7.19687    4.42335
       O     4.29007    7.47774    4.71189
      H1     3.84113    6.63682    4.80170
       H     6.95701   14.69013   10.02514
       O     7.35180   15.54719   10.16698
      H1     8.10231   15.50379    9.51761
       H     4.44929   16.22189   10.19672
       O     5.03665   17.01406   10.28004
      H1     5.90800   16.65991   10.08826
       H     5.84344   10.87790   11.98356
       O     6.51602   10.15059   11.97999
      H1     6.74969   10.23281   12.91777
       H     7.45098    4.03907    9.04488
       O     7.42197    4.98331    9.21889
      H1     6.49374    5.12131    9.46010
       H     5.26012   13.07550   11.98039
       O     6.08661   13.37497   12.37296
      H1     5.81491   14.38345   12.60408
       H     2.49483    9.74323    3.50841
       O     2.17617   10.25005    4.28713
      H1     1.51165   10.83209    3.89315
       H     7.82759    5.46975    6.13625
       O     7.42404    5.02254    5.38408
      H1     7.33740    5.68817    4.71348
       H     8.02140   10.07697    5.30405
       O     7.62427   10.23143    6.15010
      H1     8.35959   10.52429    6.66930
       H     1.52228    9.03507   11.18492
       O     0.52682    8.98065   10.93674
      H1     0.51030    9.01757    9.96965
       H    11.13438   12.24113   10.09789
       O    11.02622   11.43124    9.58785
      H1    11.74723   11.50390    8.92698
       H     5.60543   11.93660    2.60505
       O     5.89268   11.63059    3.48735
      H1     5.11141   11.52528    4.04889

