180
frame 1 | Written by MDAnalysis XYZWriter (release 2.4.3)
       H     4.54966   -1.07027    6.85325
       O     4.54157   -1.72889    6.09707
      H1     4.44150   -2.57723    6.61440
       H    -2.19839    4.30313    4.29800
       O    -2.31666    5.22365    3.94601
      H1    -2.93823    5.63556    4.47999
       H     0.87839   -1.52355    4.68979
       O     0.25983   -1.31338    3.88594
      H1    -0.63588   -1.43918    4.21169
       H    -0.75759    2.23725   12.28588
       O    -1.25014    2.96042   12.72371
      H1    -1.02592    3.78933   12.32566
       H     0.34395    5.50941    5.92371
       O     0.79122    4.64263    5.99891
      H1     1.27173    4.60096    5.17954
       H    -3.51261    8.29768    9.99295
       O    -3.05425    7.48337    9.65507
      H1    -2.60667    7.84057    8.87834
       H    -0.02460   -3.97450    6.11184
       O     0.60444   -4.61345    5.75920
      H1     1.07788   -5.04844    6.54973
       H    -0.63380   -0.26769   -0.68254
       O    -1.33471   -0.56532   -0.11754
      H1    -1.84192    0.29255    0.20006
       H    -0.08085    1.44067    6.59867
       O     0.15263    0.83142    7.31502
      H1     0.49075    1.52428    7.97072
       H     4.69435    4.33958   10.39335
       O     4.78112    4.65288    9.47378
      H1     4.17397    4.09937    8.90742
       H    -1.46310    4.70579    9.08300
       O    -1.49267    4.29998    8.19575
      H1    -2.37243    4.59187    7.93846
       H    -0.03724    3.41440    8.52855
       O     0.63204    2.87826    9.03970
      H1     1.16874    3.58302    9.44607
       H    -5.03712    5.04513    7.69777
       O    -4.20420    5.52676    7.72985
      H1    -4.42499    6.24197    8.31213
       H     4.40029   -0.40532    9.45750
       O     4.87909   -0.49216    8.62558
      H1     5.02486    0.36960    8.26413
       H     3.71427    2.54284    6.97678
       O     3.36791    3.37919    7.28018
      H1     2.49652    3.35132    6.85725
       H    -1.28824   -0.62517    8.25318
       O    -1.46760   -1.46923    8.61479
      H1    -1.74588   -1.07180    9.45270
       H     1.95600    0.11228   10.54999
       O     2.45528   -0.68488   10.48627
      H1     1.97130   -1.10508    9.76577
       H     1.41824    0.23504    4.00941
       O     2.01526    0.84587    4.44544
      H1     2.83675    0.66509    3.93165
       H    -5.53932    3.56202   10.82718
       O    -5.32759    3.37844    9.90350
      H1    -6.06285    2.96245    9.47895
       H     0.91945    5.49039   10.93086
       O     1.75219    4.98577   10.70418
      H1     2.00730    4.57564   11.51218
       H    -7.26260    2.05331    6.31693
       O    -7.62389    1.14425    6.51038
      H1    -8.10438    1.07127    5.65163
       H    -4.08084    1.66552    7.55757
       O    -5.00326    1.83599    7.35220
      H1    -5.22073    0.94106    6.99466
       H    -6.08584    1.95363    2.97447
       O    -6.70345    1.60090    2.31962
      H1    -7.30352    1.08744    2.91036
       H    -1.55782    7.60683   10.29313
       O    -0.65404    7.36657   10.65418
      H1    -0.02808    7.46665    9.92066
       H    -2.39987   -0.82356    4.82991
       O    -2.29013   -1.69420    5.25183
      H1    -2.49935   -2.34386    4.60627
       H     3.68000    3.83811    3.11297
       O     4.55933    3.63559    2.76950
      H1     4.39310    3.13850    1.99133
       H    -1.86835    3.14782    6.04473
       O    -1.36809    2.87000    5.28724
      H1    -0.56321    3.39979    5.51271
       H     4.79260    1.03680    5.24052
       O     5.17391    1.21918    6.07642
      H1     6.10820    0.94912    5.93273
       H     1.90445    2.24435    3.63536
       O     1.63671    3.18136    3.40539
      H1     1.55534    3.06824    2.41499
       H    -5.04815   -1.30264    9.50949
       O    -5.92696   -0.99246    9.55740
      H1    -5.89848   -0.03843    9.51755
       H     2.53994    7.35469    1.59889
       O     1.96354    6.59846    1.71475
      H1     2.21928    6.15983    2.56211
       H     0.22682    6.26239    2.00861
       O    -0.70957    6.48090    1.96209
      H1    -1.04873    6.03102    2.72843
       H     1.22859   -2.83145   12.51101
       O     1.24155   -2.29535   13.34722
      H1     1.01247   -1.47375   12.93076
       H    -0.30479   -1.61194    0.96202
       O     0.35033   -2.29537    1.29528
      H1     0.39535   -2.12165    2.25827
       H     4.51535    5.69489    5.10674
       O     3.88629    6.31566    4.64252
      H1     3.54395    6.88224    5.34764
       H    -1.37611   -3.87602    2.32040
       O    -1.83178   -3.74015    3.18717
      H1    -1.78211   -4.63328    3.60113
       H     1.38643    3.78764   -0.02712
       O     1.46053    2.98280    0.44914
      H1     0.95274    2.37445   -0.03860
       H     0.08430   -2.46269    8.85837
       O     1.03386   -2.73001    8.93184
      H1     1.30800   -2.45234    8.03439
       H    -1.97962    1.71585    4.10855
       O    -2.48977    0.96204    3.75363
      H1    -3.42891    1.37472    3.88191
       H     4.53635    0.95062   13.01244
       O     3.68251    1.13188   12.61494
      H1     3.56555    0.29119   12.11842
       H     1.10123    1.77853   11.97164
       O     0.56295    1.37179   11.32012
      H1     0.72628    1.96688   10.53008
       H    -0.12924    7.43371    6.46797
       O    -0.90930    7.32242    7.04398
      H1    -1.53690    7.86718    6.58764
       H     1.29588   -0.45613    6.65452
       O     1.63006   -1.34414    6.40022
      H1     2.50520   -1.11512    6.12822
       H     5.37237    7.85140    8.32511
       O     4.50094    7.46557    8.10488
      H1     4.56755    6.45012    8.05319
       H    -2.41893    4.95284   11.30733
       O    -1.64949    4.94774   10.75665
      H1    -1.39749    5.93179   10.82363
       H    -2.29394    0.68210   10.55493
       O    -1.99203   -0.17882   10.91337
      H1    -1.05076    0.01094   11.09142
       H    -6.43780   -1.10197    5.96408
       O    -5.56466   -0.76747    5.74754
      H1    -5.04399   -1.57979    5.81363
       H     3.29498   -2.06816    1.77792
       O     2.93138   -1.26645    1.35802
      H1     1.99288   -1.57209    1.34037
       H    -3.10408   -4.00299    7.18070
       O    -2.16940   -3.91488    7.41338
      H1    -1.97349   -2.98592    7.68680
       H    -2.75186   -0.45915   12.69131
       O    -2.56558   -0.65841   13.62340
      H1    -3.49330   -0.79463   13.96260
       H     2.02870   -4.45974    4.54599
       O     2.71680   -4.83245    3.96514
      H1     2.19703   -5.08697    3.19277
       H     2.71051    7.63602    6.95011
       O     2.15902    7.57057    6.12414
      H1     2.22758    8.44438    5.78426
       H     4.82798    4.41319    7.03211
       O     5.30592    5.10360    6.58212
      H1     6.22155    4.75814    6.65829
       H    -2.63708    1.18727    1.91572
       O    -2.74292    1.42282    0.97112
      H1    -2.20368    2.26546    0.92733
       H     2.30979    2.48923   13.33215
       O     1.95533    3.30897   13.07919
      H1     1.29634    3.51737   13.73643
       H    -2.26929    2.81915    9.27077
       O    -2.75451    2.25584    9.87502
      H1    -3.66699    2.57326    9.81584
       H     3.84111   -2.83116    9.27641
       O     3.97132   -3.54630    8.70958
      H1     4.17354   -4.27221    9.27356
       H    -5.25335    3.04025    4.61998
       O    -4.53950    2.86140    4.03036
      H1    -4.61867    3.62950    3.44204
       H     1.00930   -4.96409   11.56892
       O     1.48139   -4.14217   11.44022
      H1     1.13894   -4.00802   10.55728
       H     4.05267   -0.64391    2.73638
       O     4.61330   -0.10510    3.32105
      H1     4.60973   -0.72062    4.13465

