180
frame 8 | Written by MDAnalysis XYZWriter (release 2.4.3)
       H    -8.55200  -15.11769   -2.32305
       O    -7.66650  -15.48394   -2.51073
      H1    -7.04783  -14.73333   -2.47291
       H     3.93346  -17.34697   -2.51020
       O     4.40512  -17.77719   -1.81688
      H1     3.80310  -17.68967   -1.04955
       H     2.01756  -13.23332   -0.46530
       O     2.25894  -13.50953   -1.35104
      H1     2.76395  -14.37618   -1.21968
       H    -0.87744  -18.74777   -1.36910
       O    -1.73037  -18.45117   -1.00595
      H1    -2.33151  -18.97433   -1.61036
       H    -1.21859  -14.30599    3.26531
       O    -1.29183  -14.37376    2.29498
      H1    -2.01818  -13.80842    2.04630
       H    -5.25194  -16.69188   -6.89806
       O    -5.46083  -16.32609   -6.07117
      H1    -4.78325  -15.61890   -5.94856
       H     0.52938  -12.83451   -5.29490
       O     1.00550  -13.59091   -4.95627
      H1     0.92614  -13.45228   -3.99469
       H     1.14343  -17.44346  -10.43309
       O     1.76568  -17.92818   -9.91106
      H1     1.45743  -17.73787   -8.99315
       H     3.70483  -17.74197   -8.16073
       O     4.67629  -17.86248   -8.26229
      H1     4.84314  -18.37494   -9.01678
       H     1.72773  -19.13699   -6.05969
       O     2.00352  -19.05649   -7.01434
      H1     2.42143  -19.91720   -7.17879
       H     0.06420  -18.19941    5.97962
       O    -0.04649  -17.77111    6.89658
      H1    -0.97987  -17.41171    6.79659
       H    -2.21224  -11.24774   -3.23449
       O    -2.11143  -11.21300   -4.21303
      H1    -2.72587  -10.55904   -4.51297
       H    -0.90065  -11.51761    1.57518
       O    -1.16255  -11.96310    0.79068
      H1    -0.91666  -12.86511    1.06621
       H    -3.06203  -12.69375   -4.44936
       O    -3.62661  -13.37105   -4.79080
      H1    -4.01476  -13.04297   -5.62397
       H    -3.34675  -17.99485   -8.63381
       O    -4.13673  -18.09768   -9.18536
      H1    -4.12147  -19.02200   -9.46010
       H     2.96498  -19.16752    5.15235
       O     3.85866  -18.71962    5.06425
      H1     4.31964  -19.05567    4.27824
       H    -5.37214  -16.78523    0.56578
       O    -5.98213  -17.53709    0.37469
      H1    -6.09492  -17.40642   -0.58853
       H    -6.29159  -15.73794    3.06837
       O    -7.04211  -15.33568    3.61733
      H1    -6.89428  -15.78200    4.48060
       H    -2.71397  -16.61068   -2.91208
       O    -3.40076  -16.84086   -3.53560
      H1    -3.54137  -17.74750   -3.23097
       H     6.91179  -15.56219   -2.74559
       O     7.22723  -14.95040   -3.39341
      H1     6.57631  -15.05665   -4.14917
       H     3.30647  -17.36522   -4.44603
       O     3.39095  -16.48689   -4.08792
      H1     3.29869  -15.89173   -4.83878
       H     2.41172  -12.84098    1.77547
       O     1.81704  -13.62869    1.56946
      H1     1.03484  -13.53657    2.10768
       H     8.28767  -15.92583    1.04531
       O     7.73322  -16.66000    1.32240
      H1     7.15461  -16.64042    0.54285
       H     7.52640  -17.22994   -1.21391
       O     6.85428  -16.50781   -1.16661
      H1     6.02650  -16.93682   -1.45650
       H     3.45190  -17.06810    4.68319
       O     2.81288  -16.38692    4.47515
      H1     2.55550  -16.09378    5.32062
       H    -3.08851  -18.06218    2.49642
       O    -2.84433  -17.29284    3.05177
      H1    -1.90783  -17.23733    2.83139
       H     0.53661  -15.39284   -8.53802
       O     0.92982  -15.95343   -7.88289
      H1     0.12655  -16.12515   -7.37984
       H    -1.44561  -11.70481   -5.64142
       O    -0.85294  -11.75295   -6.42099
      H1    -0.12636  -11.15412   -6.22250
       H     5.28573  -11.69257   -0.68953
       O     5.33952  -12.62961   -0.46010
      H1     6.08236  -12.69916    0.13483
       H    -6.97023  -18.31219   -2.65129
       O    -6.31896  -17.72006   -2.17161
      H1    -6.78118  -16.84883   -2.40184
       H    -9.82240  -16.57020   -3.54198
       O    -9.51352  -17.13953   -4.27377
      H1    -8.79291  -16.60588   -4.60585
       H    -2.32063  -12.29737   -1.32336
       O    -2.84644  -11.51996   -1.60899
      H1    -2.47073  -10.92405   -0.97479
       H     3.70167  -14.64126    1.82112
       O     4.19529  -15.33078    2.31229
      H1     3.43878  -15.60789    2.88753
       H     6.69366  -18.58059   -5.86167
       O     5.69518  -18.40745   -5.76898
      H1     5.37959  -18.36356   -6.69669
       H     0.86913  -12.97712    5.04562
       O     1.57120  -12.52185    5.51282
      H1     1.18363  -11.67159    5.62348
       H     8.11416  -19.72993    2.09450
       O     7.23981  -19.37480    1.79519
      H1     7.54379  -18.46765    1.63357
       H    -4.93425  -16.22793    5.39447
       O    -5.46369  -17.03788    5.17492
      H1    -4.85362  -17.78177    5.42734
       H    -8.11345  -18.12081   -7.45864
       O    -7.13085  -18.16406   -7.56432
      H1    -7.09250  -17.53519   -8.35665
       H    -5.30852  -12.95638   -2.18582
       O    -5.24653  -13.85457   -2.53381
      H1    -4.76237  -13.77007   -3.37572
       H    -8.77167  -16.84296    1.91465
       O    -9.05937  -16.98681    1.01774
      H1    -8.18600  -17.08075    0.63504
       H     3.29662  -13.92016   -6.24027
       O     3.23073  -14.79774   -6.67687
      H1     2.28575  -14.94596   -6.82272
       H    -4.12420  -14.12615   -1.18056
       O    -3.70901  -14.14902   -0.28570
      H1    -3.02109  -14.78730   -0.35067
       H    -4.13312  -13.70795    5.86440
       O    -4.10536  -14.63367    5.47215
      H1    -3.97106  -14.49940    4.52579
       H     0.01735  -14.69648   -2.27506
       O    -0.44877  -13.84381   -1.97270
      H1     0.34274  -13.41382   -1.67108
       H    -4.15089  -15.95751    2.35849
       O    -4.90971  -15.62078    1.83949
      H1    -4.44163  -15.10160    1.21647
       H    -2.72928  -19.08182    6.16181
       O    -2.83908  -18.10818    6.07616
      H1    -2.65384  -17.95552    5.13018
       H    -2.80633  -11.65750    4.20785
       O    -2.89289  -11.98793    3.27938
      H1    -3.86347  -11.81786    3.09269
       H    -1.57743  -17.35802   -6.09499
       O    -0.91043  -16.71354   -5.90374
      H1    -1.47333  -16.09577   -5.40382
       H    -5.91411  -18.64511   -5.85719
       O    -5.77522  -19.07946   -5.02337
      H1    -5.37308  -18.34229   -4.53031
       H    -3.58152  -14.45814   -8.45822
       O    -4.45567  -14.43626   -8.84011
      H1    -4.37600  -13.56127   -9.33502
       H    -4.27076  -11.76644   -0.54544
       O    -5.20783  -11.70385   -0.22085
      H1    -5.20413  -12.46849    0.35852
       H     2.90054  -18.38385    1.19876
       O     3.36890  -17.70982    0.70298
      H1     3.53455  -17.06512    1.42971
       H     3.88288  -10.94423    1.55384
       O     3.28951  -11.47614    1.06209
      H1     3.93733  -12.08081    0.70628
       H     5.34399  -16.36959   -5.71796
       O     5.62972  -15.50302   -5.87160
      H1     4.83506  -15.06590   -6.21545
       H    -2.18365  -19.50938   -7.06344
       O    -1.73741  -18.90505   -7.71839
      H1    -0.96738  -19.50016   -7.70326
       H    -0.59933  -15.47297    4.54146
       O    -0.94759  -14.61764    4.92909
      H1    -1.79227  -14.91331    5.25904
       H     0.35935  -17.92494    3.75821
       O    -0.11268  -17.16044    3.43463
      H1     0.61871  -16.71257    2.93492
       H     0.51112  -15.71364   -4.01074
       O     0.87034  -15.90654   -3.12266
      H1     1.79650  -16.06833   -3.44509
       H    -7.13220  -15.88132   -5.66402
       O    -7.88397  -15.37535   -5.34058
      H1    -7.62548  -15.21430   -4.41055
       H    -8.35838  -20.18681   -3.05000
       O    -8.32604  -19.28403   -2.66583
      H1    -8.66122  -18.71849   -3.36794

