180
frame 112 | Written by MDAnalysis XYZWriter (release 2.4.3)
       H    14.62584  -17.40241   10.15724
       O    14.42490  -16.96082   11.01734
      H1    14.34524  -17.66735   11.61402
       H     6.78754  -16.52627   12.98770
       O     6.62510  -16.95342   12.11109
      H1     7.34808  -16.61298   11.46429
       H    16.91707  -19.24296    4.70386
       O    16.92889  -19.64218    3.81620
      H1    17.77639  -19.21241    3.51192
       H     6.48230  -17.51050    8.39231
       O     5.63120  -17.02306    8.38046
      H1     4.99609  -17.65557    8.79295
       H    17.64011  -16.02640   -2.48289
       O    18.25766  -15.77069   -1.81939
      H1    17.88162  -16.32103   -1.11014
       H     9.21154  -17.02100   13.17914
       O    10.00758  -16.71166   12.69975
      H1    10.62247  -17.50704   12.73856
       H    10.64684  -12.78898    3.64642
       O     9.98524  -13.46943    3.39421
      H1    10.33535  -13.57286    2.45540
       H    20.07770  -14.01572    4.47448
       O    19.47235  -14.57172    5.03560
      H1    18.82425  -13.83557    5.26125
       H    18.27882  -16.25495    3.05016
       O    18.00403  -17.14393    3.23896
      H1    17.85968  -17.12425    4.21364
       H    12.89283  -10.09909    5.74733
       O    13.50224   -9.41887    6.02019
      H1    13.32608   -9.23989    6.94684
       H     7.61746  -19.19888    7.69044
       O     8.16009  -18.59140    8.24717
      H1     8.45823  -19.10245    8.98508
       H    18.93961  -18.89004    7.77280
       O    18.08740  -19.34734    7.85286
      H1    18.33414  -19.70407    8.78963
       H    16.35922  -18.93747   13.01647
       O    17.15612  -18.44261   12.74426
      H1    17.91741  -18.88940   13.15093
       H    15.71803  -11.58334    7.95133
       O    15.34505  -12.35585    7.51709
      H1    15.97330  -12.31450    6.76435
       H    13.35758  -19.36051    5.37790
       O    12.64240  -18.66727    5.34362
      H1    13.26120  -17.89979    5.21940
       H     9.11883  -13.09033    8.76065
       O     8.72701  -13.07188    9.60023
      H1     8.43798  -14.00135    9.71448
       H     6.90392  -14.20093    5.81830
       O     6.12534  -14.03563    5.30820
      H1     6.05399  -14.83346    4.80649
       H    19.23367  -15.36016    6.68129
       O    19.39682  -16.05182    7.29420
      H1    18.84576  -16.00344    8.09301
       H    12.58430  -14.70535   12.43290
       O    13.56936  -14.65524   12.35486
      H1    13.63455  -15.34614   11.67734
       H    13.25235  -13.84250    5.57447
       O    13.68192  -13.17577    5.02704
      H1    13.94862  -12.51626    5.68659
       H    14.10230  -18.36428   14.02961
       O    14.21183  -18.97749   13.27069
      H1    14.02306  -19.84828   13.68186
       H    13.97239  -16.12177   15.20775
       O    13.40585  -16.50070   14.53382
      H1    13.52057  -15.79751   13.82488
       H    17.69165  -14.98964   10.03876
       O    17.44600  -15.67390    9.42350
      H1    16.75158  -15.27050    8.86770
       H    15.49560  -14.15079    7.80293
       O    15.44746  -15.08044    8.05387
      H1    15.04285  -15.07624    8.90912
       H     7.36530  -16.09420    9.48471
       O     8.16621  -16.02060   10.04097
      H1     8.78344  -16.67118    9.63249
       H    10.40104  -15.16218    3.48891
       O    10.34975  -16.12691    3.31158
      H1    11.29444  -16.38124    3.16636
       H    17.69312  -12.95422    4.08327
       O    17.63129  -12.53750    4.99217
      H1    17.85211  -11.62250    4.78070
       H     5.09780  -15.60225    1.97650
       O     5.08958  -16.54775    2.23099
      H1     4.17456  -16.74663    2.32874
       H    18.01850  -16.81321    6.29511
       O    17.16738  -17.27857    6.04392
      H1    17.19510  -18.05298    6.71038
       H    11.70632  -14.20626    9.69343
       O    12.18877  -13.66752    9.02552
      H1    12.31476  -12.80873    9.47524
       H     9.89555  -19.32014    7.48488
       O    10.67654  -19.72617    7.90931
      H1    11.37783  -19.11600    7.64160
       H    13.44662  -12.02428   -1.33991
       O    14.26588  -12.55288   -1.49994
      H1    14.10817  -13.34727   -0.99219
       H    16.61509  -18.77780   -0.15300
       O    17.20185  -18.05445   -0.42494
      H1    17.13104  -17.36757    0.26964
       H    15.32934  -16.51505    5.82490
       O    14.46849  -16.50485    5.39452
      H1    13.85517  -15.98204    5.91951
       H    11.83637  -17.47445   10.47528
       O    11.14850  -16.87118   10.26605
      H1    10.65762  -16.92438   11.12899
       H    18.68752  -19.97977   -2.74709
       O    18.36437  -19.02226   -2.93185
      H1    17.78209  -18.96648   -2.19654
       H    14.53559  -15.26910    0.59925
       O    13.71490  -14.79610    0.31474
      H1    13.14928  -15.14130    0.96334
       H     9.17620  -16.14150    1.49536
       O     8.58133  -15.95535    0.73143
      H1     8.80362  -16.71750    0.06901
       H    15.60970  -18.29231    3.04832
       O    15.09869  -17.62104    2.53328
      H1    14.53426  -18.18530    1.97592
       H    13.12220  -19.45027    0.73756
       O    14.02772  -19.48214    0.40920
      H1    13.81394  -19.70261   -0.56732
       H    10.08265  -16.89773   -1.73640
       O     9.35522  -17.53856   -1.71209
      H1     9.77738  -18.40559   -1.34615
       H    13.78828  -16.13215    3.30074
       O    12.97234  -15.87999    2.84390
      H1    12.42560  -15.41389    3.48285
       H    10.98479  -12.05881    7.99302
       O    10.50345  -11.50120    7.44585
      H1    10.11185  -10.76858    7.99798
       H     5.96783  -13.73678    2.68806
       O     6.23496  -14.21023    1.86079
      H1     7.11629  -14.57763    2.15978
       H     8.92292  -15.05251    6.48455
       O     8.85949  -14.14296    6.76695
      H1     9.32381  -13.52055    6.16704
       H    16.95815  -13.16921    2.10609
       O    17.72451  -13.69759    2.42000
      H1    18.45210  -13.48011    1.72430
       H    10.96670  -11.23676    5.39427
       O    11.21526  -10.71458    4.57518
      H1    10.84242   -9.75769    4.81424
       H    12.11792  -18.97605   13.06189
       O    11.22384  -19.12593   12.77775
      H1    11.28214  -19.65834   12.00405
       H    14.24800  -13.51983    1.78165
       O    14.74326  -12.76911    2.24432
      H1    14.59731  -13.06070    3.19464
       H     5.85198  -17.70441    1.01105
       O     5.94540  -18.34122    0.30818
      H1     6.73223  -18.82648    0.65611
       H    12.30698  -18.74652    3.40148
       O    11.74522  -18.83020    2.61156
      H1    10.91609  -19.09380    3.04888
       H    10.68998  -12.99016    0.11208
       O    10.49964  -13.68094    0.76852
      H1     9.81163  -14.22570    0.34597
       H     9.04665  -16.30984    4.59560
       O     8.32931  -16.23662    5.22184
      H1     8.23149  -17.20378    5.43601
       H    14.76030  -19.48329    9.96559
       O    14.05327  -19.01444    9.34769
      H1    14.36859  -19.37200    8.49977
       H    16.88362  -14.98382    1.43303
       O    16.49779  -15.77832    1.02719
      H1    16.25998  -16.33216    1.77856
       H    11.79935  -15.55851    6.70916
       O    12.59250  -15.02126    6.63064
      H1    12.59075  -14.48112    7.44918
       H     8.25164  -12.40071    3.82601
       O     7.75062  -11.85276    4.52809
      H1     7.38500  -12.56424    5.11594
       H    13.60012  -10.04851    1.56470
       O    12.89632  -10.79332    1.71604
      H1    13.58132  -11.48517    2.02835
       H    19.59815  -17.64334   11.34254
       O    19.46145  -17.31510   10.44463
      H1    18.56820  -16.90445   10.41494
       H    11.99448  -15.59222   -3.23035
       O    11.15971  -15.47437   -2.66731
      H1    10.65824  -14.88898   -3.26804

