180
frame 1 | Written by MDAnalysis XYZWriter (release 2.4.3)
       H    17.67102   -7.00434  -17.11529
       O    16.76778   -7.26227  -17.13117
      H1    16.97975   -7.86562  -17.88705
       H    10.28096    2.43961  -18.92230
       O     9.75570    2.91867  -19.59684
      H1    10.38569    3.41714  -20.09981
       H    14.49552   -9.35845  -12.85161
       O    14.34611   -8.86171  -13.67556
      H1    14.70350   -8.03983  -13.32683
       H    14.21728   -0.42204  -19.67678
       O    14.22425    0.08552  -18.83288
      H1    15.00958   -0.11957  -18.28572
       H    15.36596    4.71744  -19.93118
       O    14.78129    5.17030  -19.23800
      H1    15.55456    5.42312  -18.64917
       H    11.67957    4.79042  -17.06574
       O    10.96134    5.27770  -16.54729
      H1    10.22350    4.61296  -16.55331
       H    10.51554   -7.54193  -17.94655
       O    11.28239   -8.10157  -17.73883
      H1    11.68176   -8.10777  -18.61623
       H     7.52853    0.12865  -19.83469
       O     6.89281    0.03496  -19.10553
      H1     6.80615    0.99007  -18.76758
       H     9.82167   -2.37052  -13.61783
       O     8.91788   -2.27430  -13.32636
      H1     8.46268   -1.78426  -14.04222
       H    11.90977   -1.39514  -13.73122
       O    11.52299   -2.25948  -13.67376
      H1    11.88426   -2.65415  -14.48808
       H    14.45293   -1.77101  -11.11344
       O    14.69739   -0.90348  -10.81800
      H1    14.35815   -0.82773   -9.88851
       H     9.44450   -2.06276  -11.46596
       O     9.48344   -2.41277  -10.56579
      H1     8.70102   -3.08394  -10.61954
       H     6.37378    2.41898  -13.92956
       O     6.26945    1.46236  -14.01713
      H1     6.50373    1.14160  -13.14454
       H     7.55079    0.05332  -15.03598
       O     8.30695   -0.08849  -15.62256
      H1     9.03801    0.40884  -15.16295
       H    13.87456   -3.75095  -10.73972
       O    14.03233   -3.35518  -11.61052
      H1    13.10985   -3.18122  -11.91517
       H    13.60180    4.60557  -17.86146
       O    13.21319    4.12794  -17.14038
      H1    12.97257    3.26884  -17.51213
       H    12.84320   -8.24737  -16.70326
       O    13.61702   -8.80835  -16.44394
      H1    13.77240   -8.60571  -15.48546
       H    12.70037   -1.04816  -18.19246
       O    12.34470   -1.81963  -17.73059
      H1    11.42821   -1.45755  -17.47717
       H    10.19796    0.98375  -10.94111
       O    10.67138    1.60922  -11.49841
      H1    10.90230    2.32599  -10.85433
       H    14.75848    4.88933  -13.96236
       O    14.38645    5.80184  -13.98967
      H1    13.41332    5.74081  -14.14269
       H     9.30617   -8.26104  -14.72993
       O     8.61801   -7.85563  -15.25867
      H1     9.00033   -6.96443  -15.36085
       H     8.13242    3.32042  -16.17369
       O     8.45394    4.22803  -16.20275
      H1     8.06673    4.58516  -17.01252
       H    11.42600    5.86283  -14.89977
       O    11.67042    5.89187  -13.97842
      H1    11.35783    5.05448  -13.59871
       H    11.17891   -5.43236  -15.73388
       O    10.41036   -5.51584  -15.10609
      H1    10.79706   -5.63210  -14.24273
       H    16.31017   -3.81026  -16.05540
       O    16.51551   -3.04582  -16.68786
      H1    17.40313   -2.82537  -16.38492
       H    18.61353   -1.02150  -14.60803
       O    18.72531   -2.01070  -14.57763
      H1    18.06126   -2.19269  -13.89134
       H    17.10948   -2.29118  -12.00233
       O    17.07350   -2.99902  -12.65951
      H1    16.10882   -3.06553  -12.71797
       H    12.73750   -3.52313  -16.82386
       O    12.65859   -4.43867  -16.46124
      H1    13.14117   -4.92379  -17.17294
       H    12.41945    1.36370  -11.70086
       O    13.29616    1.31282  -12.06632
      H1    13.73543    0.59955  -11.56971
       H     9.20500   -4.60158  -15.76738
       O     8.71882   -4.02930  -16.46858
      H1     7.89987   -4.60378  -16.64758
       H    15.44384    2.38005  -17.11996
       O    15.92939    1.64582  -16.85359
      H1    15.53215    1.26218  -16.04504
       H    17.77007    4.17914  -18.64721
       O    17.30451    4.49998  -17.84148
      H1    17.90040    5.22635  -17.60435
       H    15.75823   -6.27878  -13.82569
       O    16.18210   -6.88347  -13.16200
      H1    17.06332   -6.49018  -13.21683
       H    18.01392   -0.58927  -18.33667
       O    17.07829   -0.41155  -18.34828
      H1    16.94228    0.30572  -17.75045
       H    12.63991    1.20256  -18.24922
       O    11.96561    1.80657  -17.93795
      H1    12.07995    1.52884  -17.00112
       H    14.32511   -5.10639  -15.53345
       O    15.27534   -5.27644  -15.36570
      H1    15.49957   -5.95392  -16.01620
       H     9.50328   -6.16540  -12.33198
       O    10.44302   -5.92195  -12.12495
      H1    10.88278   -6.73927  -11.89220
       H    19.52153   -3.98546  -17.07729
       O    19.59967   -3.00429  -17.00876
      H1    19.41941   -2.82123  -16.06746
       H     3.95448   -2.69539  -13.58026
       O     4.32785   -2.89030  -14.41753
      H1     4.69349   -2.05129  -14.77934
       H     8.46149   -6.74890  -17.90830
       O     9.30914   -6.38190  -18.21140
      H1     9.27339   -5.47076  -17.86247
       H     9.60020    4.40794  -12.17633
       O     9.98176    3.86130  -12.90723
      H1    10.23213    2.97713  -12.52462
       H    10.84307    1.11256  -14.55405
       O    10.49189    1.67448  -15.26219
      H1    10.34140    2.51747  -14.78176
       H     6.40366    1.87175  -16.84865
       O     7.16643    2.08334  -17.40336
      H1     7.70859    1.29221  -17.23754
       H    13.25916    0.59422  -13.68839
       O    12.82480    0.03253  -14.32023
      H1    13.59196   -0.29656  -14.88480
       H    15.60858   -0.63292  -14.86150
       O    15.02548   -0.80764  -15.60513
      H1    15.55541   -1.41089  -16.16498
       H     5.90542   -1.37090  -18.65891
       O     5.59112   -2.19960  -18.20219
      H1     6.23277   -2.90554  -18.50974
       H     6.62632   -3.99157  -14.11839
       O     7.22204   -4.52513  -13.57225
      H1     7.92867   -3.83050  -13.48711
       H     6.53548   -7.16547  -16.67923
       O     6.50107   -6.29701  -17.00832
      H1     5.63691   -6.23891  -17.49666
       H    17.73440    2.38727  -15.59482
       O    17.86785    3.29366  -15.23456
      H1    17.57847    3.84274  -15.96480
       H    11.47467   -9.65272  -14.46595
       O    10.88296   -8.98341  -14.16299
      H1    11.37126   -8.52964  -13.46917
       H     8.72452    5.72557  -18.91783
       O     8.09052    4.98040  -18.83398
      H1     8.58582    4.17924  -19.14462
       H     4.73583   -0.34194  -16.46283
       O     5.45378   -0.76038  -15.89479
      H1     5.82861   -1.35196  -16.57123
       H    13.49613   -6.61362  -18.66224
       O    13.92334   -6.22971  -17.87298
      H1    14.32650   -7.02606  -17.47995
       H    15.26254    0.95967  -12.64895
       O    15.83692    0.37372  -13.22330
      H1    16.51784    0.17347  -12.53147
       H    15.34334   -5.64173  -18.75888
       O    15.87590   -5.20202  -19.37657
      H1    15.79297   -5.77047  -20.16670
       H    18.45039    2.04543  -19.89193
       O    18.67684    2.95056  -19.64528
      H1    19.30783    2.75073  -18.89223
       H    16.78428    3.21550  -13.86626
       O    16.00663    3.52176  -13.45759
      H1    16.15379    3.32930  -12.52542
       H    19.61994    0.22137  -16.33768
       O    18.94716    0.41198  -15.66637
      H1    19.33916    0.75468  -14.87522
       H     9.19810   -1.03026  -16.77752
       O     9.52662   -1.71696  -17.42696
      H1     9.06779   -2.55996  -17.26906
       H    11.11476    6.09009  -18.03545
       O    10.80568    6.28591  -18.97002
      H1    11.47559    6.89608  -19.27996

