180
frame 4 | Written by MDAnalysis XYZWriter (release 2.4.3)
       H    -7.48290  -15.43663   -1.67503
       O    -6.63761  -15.97595   -1.47775
      H1    -5.81939  -15.38822   -1.36276
       H     2.46142  -18.37776   -1.72426
       O     3.15820  -18.72782   -1.14171
      H1     2.69918  -18.85538   -0.26450
       H    -1.55162  -18.43291   -0.81501
       O    -1.47621  -18.92114    0.01583
      H1    -2.24445  -19.48890   -0.04083
       H    -2.31183  -14.25809    2.45931
       O    -2.42901  -13.68039    1.68613
      H1    -3.16794  -13.12146    1.97187
       H     2.33038  -13.67656    6.94954
       O     1.62383  -13.03878    7.11330
      H1     1.15628  -13.22433    6.25299
       H    -3.83136  -11.33325    7.15611
       O    -3.64288  -11.00334    6.23937
      H1    -3.15815  -10.22140    6.48992
       H    -0.20686  -15.45797    8.41903
       O    -0.25279  -15.07293    7.49788
      H1     0.45303  -14.44285    7.41756
       H    -6.31199  -11.85079    0.22435
       O    -5.58521  -11.81690   -0.35967
      H1    -5.38137  -10.86866   -0.31696
       H    -7.24452  -12.27247    2.12225
       O    -7.47795  -12.68442    1.25165
      H1    -7.02584  -13.54982    1.43004
       H    -4.60620  -16.38127    9.53001
       O    -5.56062  -16.39245    9.72672
      H1    -5.84674  -16.32445    8.82520
       H    -7.70880  -10.41006    3.26522
       O    -6.97789  -10.92013    3.66380
      H1    -6.87090  -10.46504    4.50618
       H     1.09838  -18.73647   10.21039
       O     0.68944  -18.62444   11.08347
      H1    -0.24300  -18.87766   10.95300
       H    -9.82073  -15.01210    3.68381
       O    -9.25154  -14.23048    3.85611
      H1    -9.71933  -13.55903    3.32759
       H    -6.16123  -13.33234   10.89690
       O    -6.64360  -14.13779   10.92682
      H1    -6.21280  -14.69737   10.26142
       H     0.36649  -16.59782    6.72329
       O     0.49061  -17.52527    6.44582
      H1     0.73595  -17.48397    5.50360
       H     1.37107  -13.78701    1.10140
       O     1.07033  -14.34340    1.84955
      H1     1.21987  -13.92722    2.64815
       H    -0.92455  -15.26440   -3.10122
       O    -1.51104  -15.48349   -3.86539
      H1    -2.18819  -14.80104   -3.73689
       H    -1.77539  -11.84119    3.98242
       O    -0.82976  -11.92565    3.91485
      H1    -0.62047  -11.03393    4.20277
       H    -3.08400  -17.71510   11.00364
       O    -2.89223  -17.03443   10.30390
      H1    -3.00550  -17.58712    9.48888
       H    -4.72151  -17.77751    0.33876
       O    -5.10660  -18.61426   -0.04522
      H1    -5.34904  -18.34306   -0.95795
       H    -5.32565  -15.21597    2.21799
       O    -6.10169  -14.77973    2.67789
      H1    -5.92820  -15.05918    3.56948
       H    -2.81440  -18.77402    7.37747
       O    -3.35167  -18.96749    8.13341
      H1    -4.15886  -19.36620    7.77766
       H     3.05362  -15.10370    1.00660
       O     3.63308  -15.83281    0.71935
      H1     3.13966  -16.65891    0.78338
       H     3.37622  -17.79649    4.94695
       O     2.84809  -17.00125    4.69003
      H1     2.95549  -16.33068    5.35006
       H    -3.69425  -19.45532    2.10484
       O    -3.58827  -18.56189    2.51263
      H1    -2.63423  -18.50204    2.43873
       H    -3.56734  -13.10400    8.51044
       O    -4.29821  -12.49244    8.35909
      H1    -4.92336  -13.07114    7.89288
       H   -11.86143  -15.66154    3.15043
       O   -11.13951  -16.19736    3.52234
      H1   -11.35737  -16.24127    4.45733
       H    -1.87250  -14.23021    9.68264
       O    -1.94941  -13.31558    9.47803
      H1    -2.22654  -13.02512   10.37045
       H   -10.09949  -15.51390    9.42572
       O   -10.33162  -16.24085    8.84153
      H1   -10.83121  -15.76737    8.18730
       H    -1.16187  -16.17084   10.32966
       O    -0.19681  -16.10563   10.30841
      H1     0.05147  -16.98759   10.69513
       H    -6.65614  -18.78930   -3.01789
       O    -5.83796  -18.27053   -2.85494
      H1    -6.21584  -17.40289   -2.60265
       H    -5.32821  -19.04366    5.96548
       O    -5.93795  -18.59208    6.52067
      H1    -6.69151  -19.14660    6.42311
       H    -7.19893  -13.28214    7.86906
       O    -6.48608  -13.94313    7.89728
      H1    -6.98981  -14.73246    7.63447
       H    -1.44183  -12.99490    0.28900
       O    -1.09560  -12.61804   -0.54467
      H1    -0.50164  -13.29799   -0.85768
       H     4.98040  -15.66611    2.11276
       O     5.32573  -15.68285    3.01424
      H1     4.43297  -15.86471    3.40187
       H    -0.20775  -13.85557    4.31755
       O     0.76140  -13.94142    4.54421
      H1     1.01025  -13.04627    4.42331
       H    -4.85392  -16.27066    5.60974
       O    -5.65213  -16.41537    5.09345
      H1    -5.92424  -17.23717    5.43956
       H    -7.85658  -18.43367    8.71632
       O    -8.10873  -19.37045    8.79703
      H1    -7.30810  -19.63276    9.36723
       H    -4.49560  -13.27674   -1.16395
       O    -4.38709  -14.21057   -1.44822
      H1    -3.49228  -14.44233   -1.18431
       H    -9.63189  -17.21966    3.36158
       O    -8.72709  -17.40882    3.14458
      H1    -8.32681  -16.55801    2.99023
       H    -8.76498  -16.52761    8.16365
       O    -7.84578  -16.53314    7.80714
      H1    -8.06383  -16.64909    6.86117
       H    -9.25013  -12.94642    6.21073
       O   -10.19464  -13.04085    6.10880
      H1   -10.16699  -13.69615    5.40111
       H    -0.82325  -16.86539    0.57713
       O    -0.63940  -15.95557    0.46582
      H1    -0.02085  -15.80990    1.20349
       H    -2.22148  -14.00522    6.45310
       O    -3.00972  -14.54239    6.14298
      H1    -3.36530  -13.93620    5.44524
       H     2.91123  -18.49907    8.23428
       O     2.17822  -19.09890    8.36229
      H1     1.56070  -18.69910    7.71739
       H    -0.16253  -11.40343    0.54548
       O     0.27845  -11.06851    1.36282
      H1    -0.29145  -11.42430    2.03218
       H     1.00345  -15.53038   -2.05432
       O     0.42216  -14.86352   -1.65653
      H1     0.03225  -15.35856   -0.91472
       H   -11.37612  -16.54641    0.66905
       O   -10.63230  -15.86457    0.49806
      H1    -9.84297  -16.34736    0.90138
       H    -3.93033  -16.34326    2.14145
       O    -4.11890  -15.87821    1.30940
      H1    -3.32131  -15.26373    1.21413
       H    -0.46218  -12.38852    9.31284
       O     0.17087  -11.69345    9.13344
      H1     0.77574  -12.14067    8.48932
       H    -2.72110  -19.59718    4.89674
       O    -3.11257  -18.75798    5.25233
      H1    -3.48104  -18.43283    4.39001
       H    -4.09932  -12.03199    4.65901
       O    -4.02959  -12.78467    4.03945
      H1    -4.85569  -12.79296    3.48976
       H    -5.84494  -18.70325   11.72607
       O    -5.67144  -17.80760   12.20216
      H1    -5.48476  -17.25999   11.44838
       H     1.94320  -18.06434    1.91479
       O     1.69873  -17.14606    2.16408
      H1     2.16998  -16.91589    2.96848
       H    -8.82362  -17.31100    4.90725
       O    -9.45514  -17.17291    5.68517
      H1    -9.92411  -18.01400    5.86101
       H    -2.97892  -17.29541   13.15950
       O    -3.09870  -18.18209   12.81477
      H1    -4.02209  -18.17504   12.70576
       H    -1.19288  -16.17077    3.66120
       O    -1.69742  -15.35115    3.82732
      H1    -1.79950  -15.47731    4.78024
       H    -0.20350  -19.00446    3.71284
       O    -0.63935  -18.22129    3.21029
      H1     0.06511  -18.01516    2.58640
       H    -1.37696  -18.18725   -2.98255
       O    -0.71009  -18.75998   -2.61348
      H1    -0.42074  -19.27238   -3.40616
       H    -6.12413  -18.78881    3.21111
       O    -6.38192  -19.36344    3.87595
      H1    -7.33002  -19.30356    3.79727

