180
frame 138 | Written by MDAnalysis XYZWriter (release 2.4.3)
       H     4.43431  -10.58024  -14.83067
       O     3.79980   -9.81474  -14.87135
      H1     4.32751   -9.05599  -14.58071
       H    10.24699  -19.28860  -15.59044
       O    11.02735  -19.24439  -16.17711
      H1    10.53868  -19.39558  -17.02616
       H     2.73924  -13.67108  -10.68095
       O     3.41810  -13.05084  -10.33647
      H1     3.07645  -12.15454  -10.49888
       H     1.38284  -12.92478   -7.78763
       O     2.36945  -12.75496   -7.90028
      H1     2.53849  -13.03131   -8.85690
       H     9.62674  -15.75551  -15.61715
       O    10.17144  -14.96123  -15.92410
      H1     9.53119  -14.26306  -15.54277
       H     0.86783  -12.51462  -13.89398
       O     0.92148  -13.17610  -14.60189
      H1     1.50393  -12.73023  -15.22150
       H    -0.63403   -9.30313  -14.21040
       O    -1.22262   -9.98616  -13.80043
      H1    -1.50336  -10.55517  -14.55843
       H     1.04956  -15.04565  -12.06804
       O     1.71519  -14.99131  -11.35805
      H1     2.27126  -15.74253  -11.72034
       H     2.59898  -18.85057  -14.17131
       O     2.58033  -19.60089  -14.83989
      H1     3.50255  -19.73048  -14.99730
       H     1.05856  -16.58001  -16.45230
       O     0.25190  -16.03038  -16.61652
      H1    -0.17695  -16.52667  -17.33518
       H     6.09086  -15.74496  -11.15315
       O     7.01619  -15.97087  -11.07451
      H1     7.45612  -15.23718  -10.54896
       H     1.82386  -17.91840  -12.60522
       O     2.42433  -17.39862  -13.12978
      H1     1.84218  -16.68391  -13.48460
       H     5.51246  -14.56948   -9.28947
       O     5.97985  -13.67047   -9.38174
      H1     5.37256  -13.21622   -9.99281
       H     3.98578  -17.31706  -11.08078
       O     4.25903  -16.48240  -11.44468
      H1     4.18539  -16.63830  -12.39873
       H     3.84010  -10.18036  -10.98182
       O     2.92964  -10.33453  -10.73525
      H1     2.97759   -9.92623   -9.89601
       H     2.30770  -11.08863  -17.30145
       O     2.49009  -10.12485  -17.40414
      H1     2.91427   -9.95221  -16.52147
       H     4.74138   -8.20539  -17.70578
       O     4.44880   -7.33213  -17.44254
      H1     3.53759   -7.33531  -17.73241
       H     8.87981  -10.66256  -14.60804
       O     8.31435   -9.90819  -14.93126
      H1     8.42003  -10.11965  -15.89970
       H     2.26160  -14.53954   -8.15378
       O     2.28987  -15.49486   -8.26496
      H1     2.00442  -15.66469   -7.33654
       H    -0.28228  -10.20883  -19.85824
       O    -0.70762  -10.68983  -19.07782
      H1    -0.19350  -11.48715  -19.21097
       H     4.93508  -16.91178   -8.05691
       O     5.32026  -16.08774   -7.78590
      H1     4.54036  -15.52886   -7.57177
       H     2.32076   -9.01985  -11.90276
       O     1.99233   -8.32747  -12.48750
      H1     2.65416   -7.68902  -12.68357
       H     6.70101  -19.67802  -19.78332
       O     6.62088  -18.63649  -19.61036
      H1     6.61826  -18.49825  -18.61430
       H    -1.01916  -17.38332  -19.46171
       O    -1.20797  -16.38316  -19.26119
      H1    -2.15691  -16.32899  -19.48134
       H    -1.64448  -12.12976  -16.32598
       O    -1.46575  -11.15653  -16.44304
      H1    -1.24752  -11.10526  -17.39917
       H    -0.05615  -10.92034  -12.93073
       O     0.54191  -11.56041  -12.52800
      H1     1.29830  -11.04253  -12.34742
       H     9.98250  -18.57681  -12.67413
       O    10.23017  -18.82649  -13.57094
      H1    11.15441  -18.50325  -13.61121
       H     8.97597  -17.51659  -14.31642
       O     8.54497  -17.00766  -15.08151
      H1     8.14501  -16.32322  -14.56581
       H     0.54633  -15.64576   -9.13100
       O    -0.34327  -15.46695   -9.48626
      H1    -0.15391  -15.02857  -10.32326
       H    -0.75335  -17.35008  -15.29135
       O    -1.49960  -17.89914  -15.05136
      H1    -1.16366  -18.78874  -15.31081
       H     9.74434  -16.27883   -9.90763
       O     9.72778  -15.42628   -9.46764
      H1     9.16093  -15.72563   -8.72594
       H     2.06208  -13.18379  -17.24171
       O     2.63411  -12.73447  -16.58857
      H1     3.52843  -12.71109  -17.04458
       H     1.79665  -18.60928  -18.42472
       O     2.01294  -18.25937  -17.56147
      H1     2.14777  -19.07502  -16.95059
       H     9.49500  -18.20788  -10.90593
       O    10.19715  -17.62277  -11.24908
      H1    10.96552  -17.92333  -10.75574
       H     6.08839   -9.25716  -18.85967
       O     5.42576   -9.82417  -18.44850
      H1     4.69813   -9.78573  -19.12703
       H     4.35215  -14.35043  -14.20189
       O     4.65919  -15.27873  -14.24266
      H1     4.39050  -15.54140  -15.17296
       H     5.80112  -17.21466  -16.97014
       O     6.37058  -18.00346  -16.78981
      H1     7.12875  -17.65364  -16.24002
       H     6.55054  -14.97570  -14.03415
       O     7.45003  -14.89626  -13.72319
      H1     7.31870  -15.30336  -12.85682
       H     8.60035  -13.33770  -13.83275
       O     9.11778  -12.91226  -14.48817
      H1    10.01177  -12.95941  -14.08383
       H     4.31260  -15.74748  -17.55486
       O     4.28829  -16.44486  -16.90930
      H1     3.57641  -17.02010  -17.25685
       H    -2.17877  -17.17714  -13.70264
       O    -2.57738  -16.84842  -12.85361
      H1    -3.35307  -16.35559  -13.17994
       H     1.10664   -8.40065  -14.19056
       O     0.60418   -8.18164  -14.96567
      H1     1.10884   -8.62506  -15.68017
       H    10.37030  -14.68222  -11.68055
       O    11.02567  -14.06375  -12.05290
      H1    11.42199  -14.53204  -12.86240
       H     6.00679  -11.93867  -15.90664
       O     5.90291  -11.72973  -14.99011
      H1     6.48804  -10.99317  -14.79281
       H     1.33820  -18.01596   -8.85673
       O     2.17857  -17.89785   -9.41246
      H1     2.38401  -17.01063   -9.13262
       H     1.19123  -18.16689  -10.72343
       O     0.69327  -18.62360  -11.46356
      H1     0.93148  -19.52607  -11.23218
       H    -2.22177  -17.85353  -11.29308
       O    -1.76390  -18.40476  -10.55721
      H1    -0.91194  -18.50852  -10.98971
       H     0.80584  -13.58586  -18.66826
       O     0.50259  -13.54360  -17.77948
      H1     0.21933  -14.43594  -17.44585
       H    -0.94459  -13.35024  -15.00800
       O    -1.53259  -13.89251  -15.62213
      H1    -0.87443  -14.45364  -16.06057
       H     8.77339  -14.79798  -17.26198
       O     8.37976  -14.23717  -17.94678
      H1     8.19017  -14.93463  -18.59283
       H     4.70722  -10.71585  -13.09449
       O     5.31726  -10.69373  -12.35752
      H1     5.46068   -9.73131  -12.35903
       H     3.81735  -18.59845   -9.51417
       O     4.67100  -18.95143   -9.13045
      H1     5.13176  -19.36632   -9.82910
       H     8.35279  -18.72038   -9.22001
       O     8.63357  -19.42547   -9.82267
      H1     9.13877  -19.98202   -9.23422
       H    10.68265  -12.28114  -19.38097
       O     9.85630  -12.55521  -19.77307
      H1     9.53368  -13.15411  -19.11029
       H    -1.77534  -13.13755  -10.92928
       O    -1.13901  -13.39174  -11.62695
      H1    -0.48427  -12.65114  -11.71300
       H     6.43715  -12.73557  -17.86261
       O     5.55592  -12.44996  -17.59222
      H1     5.47099  -11.55386  -17.93120
       H    12.91589  -14.46436  -14.26646
       O    12.27312  -15.16412  -13.99224
      H1    11.67112  -14.89509  -14.70920
       H     4.86949  -13.68542  -18.33601
       O     4.55415  -14.43461  -18.84812
      H1     5.32578  -14.56444  -19.44268
       H     0.07136  -14.96357  -13.70078
       O     0.06767  -15.85085  -13.35230
      H1    -0.84487  -16.15780  -13.18108
       H     7.09648  -17.19707   -8.03815
       O     8.07487  -17.31167   -8.08819
      H1     8.26304  -17.51236   -7.18084

