180
frame 1 | Written by MDAnalysis XYZWriter (release 2.4.3)
       H    -2.34833   -4.60142   -0.36260
       O    -2.13285   -5.43169    0.09870
      H1    -3.00022   -5.63879    0.55192
       H    -6.18196  -15.05030   -2.22056
       O    -5.41657  -15.36010   -2.78929
      H1    -4.75012  -14.79249   -2.44222
       H    -1.06951  -14.00421    1.37194
       O    -2.06735  -14.04384    1.45644
      H1    -2.20953  -13.41884    2.15807
       H    -3.58818  -16.43761   -6.00838
       O    -3.52759  -15.46416   -5.93326
      H1    -3.23789  -15.33619   -5.02579
       H     0.57957  -12.82248   -3.96325
       O     1.41334  -13.20566   -3.66926
      H1     1.23424  -14.14661   -3.69990
       H    -6.52870   -9.23927   -5.47094
       O    -6.90753   -9.47909   -4.62409
      H1    -7.29691   -8.63779   -4.35914
       H    -3.09534   -7.37286   -3.47267
       O    -3.16809   -6.52611   -3.93589
      H1    -3.76692   -6.01340   -3.44927
       H    -6.05562  -13.92720    0.35657
       O    -6.18428  -13.05537   -0.09396
      H1    -6.21827  -12.47787    0.63178
       H    -8.36940   -9.59486    2.19923
       O    -8.94997   -9.70332    3.00575
      H1    -8.84080   -8.80918    3.50150
       H     1.31626   -5.23587   -1.29846
       O     1.05458   -5.46200   -2.25182
      H1     0.20444   -5.92197   -2.04843
       H    -7.42901  -10.79891    3.25453
       O    -6.57163  -11.21628    3.02927
      H1    -6.41646  -11.55897    3.94415
       H    -6.23242   -6.14925   -2.99033
       O    -5.84177   -6.35965   -2.13304
      H1    -5.35117   -5.55622   -1.84719
       H    -8.34466  -10.97142   -2.11887
       O    -8.46868  -11.83429   -1.71189
      H1    -7.68361  -11.90058   -1.18922
       H    -1.58460  -10.19556   -8.63449
       O    -1.51735  -10.41166   -9.59102
      H1    -1.79072  -11.32752   -9.48658
       H    -2.64901  -14.28240   -2.40971
       O    -2.23287  -14.47211   -3.24636
      H1    -1.83504  -13.66145   -3.58097
       H     1.52476  -12.21157    1.78072
       O     0.72827  -12.41866    2.30919
      H1     0.03435  -11.88783    1.89319
       H    -0.47825  -16.85459   -3.95733
       O    -0.25192  -15.90913   -4.02155
      H1    -0.90111  -15.55468   -3.39204
       H    -1.61474   -9.85120    3.79683
       O    -1.38361   -9.33197    3.04649
      H1    -2.14824   -8.76739    2.93106
       H    -7.88964  -14.29613   -0.71180
       O    -8.01154  -15.09929   -1.26532
      H1    -8.35062  -15.69595   -0.54669
       H    -7.73549   -7.43351   -1.19239
       O    -8.38991   -7.33310   -0.48935
      H1    -8.16880   -6.48851   -0.09143
       H    -9.23723   -9.65039   -8.45029
       O    -9.74987   -9.92036   -7.67925
      H1    -9.17426  -10.69083   -7.42304
       H    -0.58264  -13.23452   -5.47535
       O    -0.78367  -12.63299   -4.75475
      H1    -1.05663  -11.79077   -5.17197
       H    -6.54356  -14.14025   -8.40599
       O    -7.41142  -13.86692   -8.73554
      H1    -7.43909  -12.96583   -8.41756
       H    -4.25980   -4.93289    1.68043
       O    -4.56028   -5.87946    1.55218
      H1    -4.62041   -6.21915    2.48117
       H    -1.92530   -6.36447   -2.89774
       O    -1.24250   -6.56678   -2.26218
      H1    -1.68362   -6.36798   -1.47762
       H    -2.82408  -10.01887  -10.66291
       O    -3.46032  -10.20312  -11.36854
      H1    -4.16199   -9.47947  -11.18530
       H    -7.58391  -12.65415   -4.73288
       O    -6.87636  -12.12129   -5.08934
      H1    -7.16082  -11.20208   -4.90306
       H     1.46552   -8.04449   -3.57504
       O     1.70679   -7.45130   -4.29783
      H1     1.94645   -8.06674   -5.00640
       H     0.24928   -6.37935   -4.87441
       O    -0.32390   -5.89632   -5.49741
      H1    -0.32973   -5.04210   -5.10416
       H    -8.46449  -15.04048   -3.21034
       O    -9.17157  -15.36832   -3.80971
      H1    -8.83346  -14.91581   -4.61261
       H    -3.41966   -2.38419   -5.16635
       O    -3.57021   -3.33211   -5.10534
      H1    -4.22158   -3.48498   -5.87215
       H    -1.59492  -13.19873   -0.43504
       O    -0.89851  -12.80667   -0.95883
      H1    -0.09229  -13.29375   -0.77626
       H    -5.36996  -11.37110   -9.84501
       O    -5.54096  -10.53544   -9.23632
      H1    -5.74867   -9.83926   -9.83602
       H    -6.85142  -11.10919   -8.22190
       O    -7.61420  -11.46244   -7.73289
      H1    -7.12570  -11.72366   -6.95008
       H    -9.47913   -8.53980   -2.45696
       O    -9.31175   -9.39687   -2.92215
      H1    -9.61012   -9.27977   -3.84738
       H    -0.52975   -9.51451   -7.12609
       O    -1.48096   -9.63810   -6.96522
      H1    -1.82392   -8.72162   -6.90105
       H    -4.57664   -7.86538   -5.68649
       O    -4.78746   -8.65760   -6.19428
      H1    -3.92776   -8.89468   -6.62405
       H   -10.97352   -6.66063   -2.50295
       O   -10.06754   -6.47322   -2.75697
      H1    -9.66873   -6.48002   -1.81406
       H    -4.49532  -13.34274   -0.44976
       O    -3.83125  -14.04293   -0.80035
      H1    -3.37071  -14.22206    0.04816
       H   -11.63780  -12.78561   -1.12656
       O   -11.55560  -12.21376   -1.88696
      H1   -10.62703  -11.93229   -1.86425
       H     1.61894   -8.43076   -8.07643
       O     0.73806   -8.84184   -8.18807
      H1     0.67165   -9.21055   -9.03742
       H    -3.04383  -12.44261   -6.71051
       O    -2.46490  -12.95425   -7.27150
      H1    -3.04218  -13.75281   -7.36493
       H    -6.26428   -5.35740    0.66089
       O    -7.14489   -4.98592    0.61810
      H1    -7.63113   -5.26587    1.44746
       H     3.53787  -11.26657   -4.85191
       O     3.47923  -12.11742   -5.20004
      H1     2.77121  -12.52345   -4.64352
       H    -5.72412   -6.10851   -8.65322
       O    -5.01625   -6.47927   -9.21021
      H1    -4.73802   -7.10464   -8.51256
       H    -7.75218   -9.02541   -0.03148
       O    -7.59931   -9.86268    0.44683
      H1    -6.77214   -9.52828    0.82856
       H    -2.11003   -3.40279   -7.99233
       O    -2.59049   -4.10300   -8.42339
      H1    -3.16359   -4.47350   -7.73086
       H    -2.11280   -6.59382   -7.53401
       O    -2.61241   -7.01954   -6.80832
      H1    -2.03465   -6.66097   -6.06784
       H    -3.76938   -3.85968   -1.99722
       O    -4.46346   -4.11996   -2.59179
      H1    -4.02223   -3.80984   -3.41271
       H    -5.03566  -11.77159   -4.92217
       O    -4.18015  -11.29473   -5.01135
      H1    -4.41970  -10.39077   -5.31293
       H    -1.10251  -10.85434    0.22556
       O    -0.44956  -10.40729    0.77747
      H1    -0.93211   -9.95887    1.51063
       H    -5.03706   -9.22276   -3.16804
       O    -4.10859   -9.33546   -2.91828
      H1    -3.77393  -10.06012   -3.45166
       H    -3.62337  -12.20179    4.14269
       O    -3.47087  -12.62479    3.29108
      H1    -4.24392  -13.24085    3.32698
       H    -0.69234  -15.14109   -5.63216
       O    -0.49548  -14.71578   -6.49601
      H1    -1.28483  -14.19432   -6.69946
       H    -4.73744  -15.69692   -8.64633
       O    -4.79342  -14.70920   -8.48668
      H1    -4.51754  -14.38945   -9.31186
       H    -8.25410   -6.51513   -3.81910
       O    -7.39859   -6.50733   -4.30662
      H1    -7.35932   -5.61754   -4.71149
       H    -4.67269   -7.76537    0.09425
       O    -4.67799   -8.68735    0.19412
      H1    -4.78711   -9.04437   -0.68384
       H     1.18543   -7.66075   -0.15606
       O     1.71570   -7.36363    0.64362
      H1     2.10300   -6.58361    0.22476
       H    -5.67687  -15.12811   -6.06134
       O    -6.46282  -15.27124   -5.48598
      H1    -6.05627  -15.10030   -4.62909
       H     0.05954   -9.22138   -0.86265
       O     0.37689   -8.62946   -1.53364
      H1    -0.43824   -8.28633   -1.90674

