180
frame 11 | Written by MDAnalysis XYZWriter (release 2.4.3)
       H   -18.48031   -1.55792    8.63263
       O   -18.87502   -1.77511    7.76246
      H1   -18.89180   -0.86535    7.33925
       H   -14.95390   -6.90355    3.18653
       O   -15.26282   -6.00932    3.11793
      H1   -16.20515   -6.20875    3.06594
       H   -17.80980    2.50992    9.68850
       O   -18.52940    2.43046    9.08347
      H1   -18.93255    3.27458    9.15756
       H   -15.65554  -12.69110    9.18104
       O   -15.06344  -12.21320    9.77979
      H1   -15.55483  -12.29794   10.64884
       H   -16.18448    1.26359   10.94270
       O   -16.31893    2.17913   10.72594
      H1   -15.42515    2.54508   10.82103
       H   -12.47122   -1.07530    9.84608
       O   -12.68706   -0.11791    9.79855
      H1   -13.62726   -0.20492    9.68500
       H   -13.86265   -4.22817   -1.20380
       O   -14.73120   -3.75300   -1.14555
      H1   -14.84478   -3.72644   -0.16658
       H   -12.28848   -3.60487    1.71413
       O   -11.31896   -3.53426    1.55029
      H1   -11.03406   -4.23188    2.06152
       H   -15.17927   -4.93149    4.70395
       O   -15.34488   -4.47452    5.52617
      H1   -15.51954   -5.24670    6.12829
       H   -18.80429   -7.79827    0.80152
       O   -18.83769   -7.76113   -0.20327
      H1   -18.66746   -6.80343   -0.37254
       H   -10.57346   -6.51731    6.18849
       O   -11.39380   -6.97391    6.31809
      H1   -12.02723   -6.28795    6.06102
       H   -15.80766  -13.72936    7.51917
       O   -16.56352  -13.46300    8.05559
      H1   -16.77456  -12.51262    7.78847
       H   -19.34258   -5.28023    6.62725
       O   -19.23745   -6.21375    6.77292
      H1   -18.29947   -6.39733    6.64504
       H   -18.35368    1.66871   12.27882
       O   -18.83538    0.86881   12.56722
      H1   -18.85489    0.36418   11.81341
       H   -19.25543   -4.33521   -0.09039
       O   -18.37460   -4.71323   -0.30191
      H1   -17.85621   -4.16654    0.29140
       H   -18.55041   -6.96518   10.84471
       O   -18.35672   -6.11735   11.26804
      H1   -17.83667   -6.41378   12.01966
       H   -16.44842  -10.45106    6.42382
       O   -17.21255  -11.01954    6.57111
      H1   -17.80120  -10.54290    7.20971
       H   -12.68629   -6.45230   10.44828
       O   -12.28807   -7.20461   10.00894
      H1   -13.10785   -7.68424    9.90643
       H   -16.62983   -7.62651    0.71186
       O   -15.74557   -7.83153    0.38698
      H1   -15.83851   -8.71110   -0.02319
       H   -19.20623   -9.68911    9.00034
       O   -18.97543   -9.41643    8.13939
      H1   -19.63774   -8.71714    7.92494
       H   -18.49710  -11.54642   10.42780
       O   -18.21989  -10.66706   10.52135
      H1   -18.56676  -10.42178   11.45018
       H   -14.65215   -4.27347    2.09609
       O   -14.03781   -3.74886    1.60345
      H1   -14.41958   -2.90632    1.59437
       H   -17.56470   -5.17217   14.25975
       O   -16.88270   -4.65066   13.81036
      H1   -16.92314   -3.83118   14.30295
       H   -12.86311   -0.41648    6.06329
       O   -13.39293   -0.02694    6.78280
      H1   -13.51439   -0.77768    7.39179
       H   -17.42890   -8.95730    5.04825
       O   -16.98563   -8.76605    4.19700
      H1   -16.64000   -9.64302    4.01359
       H   -16.52513   -9.57612   10.62182
       O   -15.73561   -9.40681   10.16393
      H1   -15.31166  -10.29571    9.96001
       H   -15.61880   -7.64353    6.97009
       O   -15.95020   -6.72184    6.89240
      H1   -15.66773   -6.30382    7.69638
       H   -17.86118   -7.62843   14.96678
       O   -17.78501   -7.65133   14.03009
      H1   -16.94444   -8.00786   13.79329
       H   -12.95461   -0.63097    1.40722
       O   -13.89429   -0.77328    1.66202
      H1   -14.10401   -0.09517    2.35189
       H   -19.15412  -14.06726   10.00413
       O   -19.29725  -13.27920    9.43394
      H1   -18.61266  -13.42245    8.85927
       H   -19.20118  -10.77425    0.55018
       O   -18.69528  -10.41923    1.27317
      H1   -19.22247  -10.83332    1.98333
       H   -14.34885  -10.02629    6.13431
       O   -15.11173   -9.36679    6.08860
      H1   -14.86524   -9.05486    5.19190
       H   -17.68833   -1.88603    0.62681
       O   -17.00638   -2.48303    0.92221
      H1   -17.17774   -2.65327    1.85693
       H   -17.67261    0.66297    0.53751
       O   -18.28536    1.11484    1.16844
      H1   -17.78216    0.93886    1.98588
       H   -15.33838   -5.79749   13.98212
       O   -14.62722   -6.36374   13.69852
      H1   -14.35113   -6.77988   14.49715
       H   -18.11055    2.27563    3.91167
       O   -17.24211    1.80361    3.85598
      H1   -17.35588    0.99395    4.38731
       H   -12.73886   -8.42186    2.03282
       O   -13.08919   -7.98958    2.84957
      H1   -12.71304   -8.49490    3.60229
       H   -11.94726   -3.81090    6.17016
       O   -12.48594   -4.46375    5.85875
      H1   -13.38242   -4.14947    6.04208
       H   -14.90834    0.11176    4.36290
       O   -14.66842    0.86909    3.76831
      H1   -15.46455    1.38154    3.65649
       H   -15.36675   -6.77348   -1.06981
       O   -15.06575   -6.32171   -1.90266
      H1   -14.95781   -5.43434   -1.54018
       H   -11.62302   -6.43937    3.35023
       O   -10.94329   -5.75441    3.33705
      H1   -11.28773   -5.11323    3.98825
       H   -19.00870   -6.57995    3.04158
       O   -18.27998   -7.01915    2.59004
      H1   -18.13522   -7.81443    3.11972
       H   -18.22984   -4.11086   -3.19218
       O   -19.09531   -4.50540   -3.08106
      H1   -19.16443   -4.48860   -2.14297
       H   -15.98773   -3.25253   11.62728
       O   -16.42100   -3.65767   10.88877
      H1   -16.90728   -4.37583   11.26564
       H   -15.38723    1.93758    8.15708
       O   -15.72119    1.07951    7.77172
      H1   -15.03667    0.87581    7.11771
       H   -18.59479   -1.64212   10.88432
       O   -18.33485   -0.92265   10.27354
      H1   -17.36144   -0.85860   10.32222
       H   -18.46486    1.37677    7.50723
       O   -18.96016    0.87544    6.81003
      H1   -19.82891    1.15539    7.07228
       H   -15.46524   -1.65338   10.18430
       O   -15.54926   -0.64380   10.08077
      H1   -15.80401   -0.59063    9.14019
       H   -14.50663   -2.44901   12.92246
       O   -15.23486   -1.88208   12.66589
      H1   -15.69176   -1.73533   13.52528
       H   -18.18099  -13.51245    4.63509
       O   -17.30807  -13.24548    4.94441
      H1   -17.55940  -12.38377    5.40934
       H   -11.96612   -8.52477    5.22630
       O   -12.47977   -9.38018    5.01445
      H1   -11.80842  -10.07038    5.17924
       H   -16.58752  -10.00224    1.94265
       O   -15.81991  -10.48898    2.31861
      H1   -15.05102  -10.31478    1.75283
       H   -18.16352   -3.44782    4.79553
       O   -17.49322   -3.02259    4.27651
      H1   -16.70222   -3.34337    4.68822
       H   -12.79521   -4.25076   11.52485
       O   -12.94914   -4.67556   10.65370
      H1   -12.06074   -4.52434   10.21259
       H   -15.34906   -3.21980    7.26863
       O   -15.36116   -2.24329    7.46233
      H1   -15.67008   -1.88730    6.62970
       H   -14.02502   -4.75505    9.40724
       O   -14.75381   -4.78987    8.72115
      H1   -15.48392   -4.37273    9.18722
       H   -19.90420   -4.19686   13.87531
       O   -19.54692   -3.34170   14.22082
      H1   -18.58567   -3.46915   14.05122
       H   -14.99165   -8.07486   12.91355
       O   -15.58699   -8.82901   12.92027
      H1   -15.56131   -8.98500   11.94705
       H   -16.34986    3.52413    6.54744
       O   -17.13050    3.43747    6.01905
      H1   -16.85667    2.84125    5.34682
       H   -17.39232   -0.96172    5.39536
       O   -16.61454   -0.47761    5.53362
      H1   -16.85190    0.18233    6.25701

