180
frame 2 | Written by MDAnalysis XYZWriter (release 2.4.3)
       H   -12.81161    7.46038   14.58465
       O   -12.00910    7.19067   15.02367
      H1   -11.60406    8.01588   15.43665
       H   -15.96046    4.16604   19.07387
       O   -16.18653    3.22905   19.17844
      H1   -16.67815    3.15089   18.33767
       H   -18.78430    3.45480   11.18524
       O   -18.41984    3.36771   10.28057
      H1   -17.48631    3.38339   10.55750
       H   -17.09720   -1.06055   11.72433
       O   -16.87401   -1.05780   12.67677
      H1   -17.33265   -0.27818   13.01248
       H   -11.91496   -2.07780   16.81943
       O   -12.43904   -1.22619   16.74347
      H1   -11.79677   -0.48906   16.84031
       H   -18.21405    3.55649   16.31306
       O   -17.65759    2.92145   16.81522
      H1   -16.74273    3.23959   16.71285
       H   -18.61434   -5.95066   16.33430
       O   -18.96212   -6.49607   17.05922
      H1   -18.73678   -7.38831   16.75743
       H   -10.95639    4.39792   14.26692
       O   -11.00169    5.04322   13.56000
      H1   -11.29845    5.84772   13.96543
       H   -10.05593    5.22504   18.81051
       O   -10.77559    5.10724   18.15082
      H1   -11.16951    4.19186   18.40740
       H   -10.52635    2.54944   16.31345
       O   -10.60996    3.43910   15.90067
      H1   -10.55772    4.01067   16.65695
       H   -19.29023   -1.58338   14.98871
       O   -19.57936   -2.09665   14.22074
      H1   -19.17093   -2.93962   14.28471
       H   -13.23555   -0.29618   10.31055
       O   -12.82607   -0.58708    9.50727
      H1   -13.45912   -1.24934    9.16314
       H   -11.81542   -4.10285   15.38191
       O   -11.27424   -3.96151   16.19776
      H1   -11.85246   -4.36943   16.84936
       H   -14.94967    8.19832   14.12327
       O   -14.52243    7.48611   13.61641
      H1   -15.07140    7.62965   12.74706
       H   -14.37699    2.97045   16.25085
       O   -14.99504    3.70891   16.08679
      H1   -14.69862    4.47525   16.60275
       H   -18.48322    6.93633   18.30874
       O   -17.90151    6.77673   17.54570
      H1   -17.57908    7.72254   17.39461
       H    -9.93261   -1.46602   19.71251
       O   -10.39756   -2.21940   19.34051
      H1   -11.33839   -2.12480   19.44947
       H   -13.48445    8.56614   18.43016
       O   -12.81446    8.09491   17.93128
      H1   -13.25644    7.21320   17.76981
       H   -14.97837    2.08240   19.29068
       O   -14.30380    1.29290   19.25712
      H1   -14.74247    0.76329   19.89567
       H   -10.88716    1.06836   13.49212
       O   -10.69788    0.12579   13.75170
      H1    -9.93282   -0.04671   13.18170
       H   -17.56046    1.62559   15.36380
       O   -17.28646    1.20435   14.54062
      H1   -16.33313    1.05139   14.59248
       H   -19.71188   -5.59149   12.64258
       O   -18.76773   -5.70688   12.71913
      H1   -18.59929   -6.63802   12.57514
       H    -9.07972   -4.29673   13.81094
       O    -8.82641   -3.78719   14.60155
      H1    -9.68035   -3.64172   14.99099
       H   -18.13864    1.59641   17.95083
       O   -18.28309    0.78912   18.53443
      H1   -18.13812    0.05875   17.85905
       H   -17.76843    4.92745   14.76831
       O   -18.44918    5.14770   15.43433
      H1   -18.00648    5.69006   16.10529
       H   -18.44173   -5.04064   14.20353
       O   -18.42298   -4.39473   15.01123
      H1   -17.54679   -4.00415   15.06884
       H   -14.24147   -0.75893   13.98888
       O   -14.47519   -1.10360   14.85640
      H1   -13.62796   -1.00431   15.29107
       H   -14.33418   -5.56395   17.54285
       O   -13.36716   -5.52397   17.60304
      H1   -13.13024   -6.45760   17.70066
       H   -15.63149   -6.51376   12.23579
       O   -15.34768   -6.88784   13.07472
      H1   -15.03305   -6.04249   13.47749
       H   -15.20587   -8.72020   15.76571
       O   -14.83330   -9.40284   16.34671
      H1   -14.53794  -10.08857   15.78177
       H   -18.59129    9.42190   12.77121
       O   -18.55241    9.44359   13.81062
      H1   -19.25961    8.80018   14.00619
       H   -13.69073   -8.55756   17.28916
       O   -13.02500   -8.18855   17.92341
      H1   -12.22717   -8.18386   17.40898
       H   -14.91564    4.49091   10.70398
       O   -15.69996    4.18626   11.13419
      H1   -15.63230    4.54580   12.05761
       H    -9.20427    0.80023   16.15888
       O   -10.14368    0.72802   16.39903
      H1   -10.37203    0.19727   15.60876
       H   -15.37555   -3.30188   12.86251
       O   -15.02746   -3.09199   11.98182
      H1   -14.10353   -3.38851   11.97281
       H   -15.16478    5.69137   13.74456
       O   -15.80451    4.92796   13.80224
      H1   -15.48857    4.46512   14.58329
       H   -12.97182   -5.96552   14.75462
       O   -13.50870   -5.22495   14.94394
      H1   -13.44568   -5.30408   15.90213
       H   -13.67972    5.32923   18.62622
       O   -13.63202    5.59845   17.69172
      H1   -12.62648    5.46992   17.56281
       H   -16.60616   -3.84703   18.24446
       O   -17.46736   -3.70526   17.81053
      H1   -18.06165   -4.14151   18.40423
       H   -16.68713   -3.50426   11.03811
       O   -17.38672   -4.04336   10.71195
      H1   -17.71249   -4.53384   11.48779
       H   -16.51128    0.27371    9.41056
       O   -16.85258   -0.56230    9.62495
      H1   -16.28238   -1.23625    9.21880
       H    -9.03134   -0.36302   18.46356
       O    -8.53154   -0.01402   19.27434
      H1    -7.90361   -0.78679   19.37662
       H   -12.04974   -2.64279   10.76381
       O   -12.13716   -3.55254   11.16087
      H1   -11.22686   -3.70964   11.25830
       H   -15.72656   -2.43486   14.79052
       O   -16.01694   -3.34076   14.90290
      H1   -15.16375   -3.80083   15.19855
       H   -18.99767    0.28806    9.36495
       O   -19.75888   -0.11352    8.91304
      H1   -19.53228   -1.04571    9.11636
       H   -15.02421   -3.40381    8.75760
       O   -15.01808   -2.46321    8.62257
      H1   -14.91841   -2.44360    7.66464
       H   -16.31504   -7.10596   17.89260
       O   -15.96472   -6.39597   17.31680
      H1   -16.71162   -5.76364   17.39268
       H   -15.20338   -2.36367   16.73932
       O   -14.68902   -2.28531   17.53460
      H1   -13.92098   -1.75557   17.30780
       H   -13.53919    1.20576   11.68869
       O   -13.75222    1.97597   11.13824
      H1   -14.43089    2.41440   11.58652
       H   -12.37225    2.71100   12.06977
       O   -11.44303    2.89065   12.25134
      H1   -11.45171    3.87600   12.41080
       H   -19.85529   -3.23930    8.85092
       O   -19.04999   -2.75911    8.94258
      H1   -18.65493   -3.19359    9.70036
       H   -16.14529   -5.58990   10.13591
       O   -15.93225   -6.56488   10.40031
      H1   -14.96111   -6.56480   10.15059
       H   -12.73703    1.91949   19.29905
       O   -12.00159    2.49281   19.07903
      H1   -11.23346    1.93630   19.34484
       H   -12.76507   -0.81914   12.44487
       O   -13.66317   -0.55123   12.24066
      H1   -14.18910   -1.33505   12.14329
       H   -16.25383   -7.36287   15.69819
       O   -16.84295   -7.82357   15.07712
      H1   -16.46633   -7.49015   14.25820
       H   -16.61110    5.86773   20.10523
       O   -16.12490    5.99011   19.26589
      H1   -16.84341    6.16155   18.52472
       H    -9.93799   -4.18346   17.87906
       O    -9.69511   -4.84547   18.46966
      H1    -9.37361   -5.51865   17.85991
       H   -19.60079   -1.91171   16.83052
       O   -18.73313   -1.45341   16.99038
      H1   -18.08392   -2.16588   16.89235
       H   -12.90507    1.80870   17.45420
       O   -12.99285    1.82425   16.46479
      H1   -12.31255    2.50456   16.25579
       H   -16.34879    9.61628   16.56278
       O   -16.92538    9.38189   17.36024
      H1   -16.30608    9.28835   18.12434

