180
frame 149 | Written by MDAnalysis XYZWriter (release 2.4.3)
       H     4.32579   -7.67481    4.09249
       O     4.29645   -7.02604    4.80830
      H1     4.25112   -6.21418    4.18769
       H     4.89634  -11.32367    1.85411
       O     5.24670  -11.17672    2.71986
      H1     4.74416  -11.73142    3.30664
       H     6.57135  -11.56205    9.26222
       O     6.61586  -12.23680    8.59914
      H1     7.40796  -12.70643    8.79130
       H    12.11652  -10.17712    0.86974
       O    12.74490  -10.89189    0.82524
      H1    12.76985  -11.16272    1.76992
       H    10.66987   -9.78584   -0.62949
       O    10.61513   -9.11633    0.06097
      H1     9.74481   -9.15909    0.50727
       H    13.17922  -10.00296    3.56857
       O    12.51162  -10.73019    3.74915
      H1    11.74851  -10.05192    3.82857
       H    12.03451   -7.27887    9.07859
       O    12.79571   -6.75737    8.74031
      H1    13.61809   -7.30384    8.73567
       H     1.42804   -4.16771    7.29461
       O     1.50313   -5.08428    7.51053
      H1     0.65916   -5.18342    7.98250
       H     5.58366   -4.30431    3.02812
       O     4.86945   -4.52844    3.67403
      H1     4.30809   -3.75290    3.79437
       H     2.40609   -1.87285    4.43048
       O     3.27419   -2.18685    4.19433
      H1     3.74275   -1.40464    4.42496
       H     3.76648  -10.78308    6.50371
       O     3.40170  -11.63733    6.80539
      H1     3.88812  -11.86038    7.57055
       H     9.31845  -12.22212    3.84504
       O     9.05115  -11.59879    3.16961
      H1     9.01633  -12.20032    2.38279
       H     4.08172   -3.80604    9.14727
       O     4.23137   -2.83002    9.07355
      H1     3.40836   -2.57419    8.60790
       H    11.66602   -8.66145    6.67906
       O    11.03966   -7.94273    6.73398
      H1    11.52854   -7.37888    7.31428
       H     6.88114  -10.28627    5.02148
       O     6.05341   -9.77919    4.95126
      H1     5.59220  -10.39065    4.32695
       H     5.29893   -6.40368    6.35490
       O     5.62052   -6.21629    7.29057
      H1     6.39487   -6.86019    7.32878
       H     6.13233   -0.07761    2.78175
       O     6.29088   -1.01112    2.59701
      H1     6.21823   -1.35657    3.46397
       H     0.45209   -5.95327    2.46731
       O     1.22950   -6.02186    3.06369
      H1     1.32052   -7.00541    3.18336
       H     3.48505   -8.20550    0.84891
       O     3.22502   -7.62478    0.13983
      H1     2.86278   -6.81684    0.56993
       H     6.68421   -1.60672    9.78422
       O     6.72206   -2.02958    8.94327
      H1     5.81839   -2.40155    8.87675
       H     6.58921   -8.97851    9.23484
       O     6.29488   -9.00304   10.11581
      H1     5.61028   -8.32726   10.18016
       H     7.24361  -13.24828    6.13192
       O     7.06921  -14.18781    5.75106
      H1     6.77977  -14.75858    6.49025
       H     4.29663  -12.05372   -0.21681
       O     4.11876  -11.24448    0.29436
      H1     4.74062  -10.60410   -0.12545
       H     2.59891   -9.20979    2.71648
       O     1.62886   -9.30699    2.72911
      H1     1.57963   -9.54750    1.79610
       H     6.27163   -4.87748    5.05687
       O     7.02146   -4.58443    5.60955
      H1     6.62987   -4.89114    6.51401
       H     6.05416   -6.37641    0.14423
       O     5.48780   -6.38237   -0.60877
      H1     4.62162   -6.75580   -0.22121
       H     9.72594   -3.49707    5.47609
       O     9.01659   -3.07383    4.95619
      H1     8.28446   -3.64593    5.15949
       H     9.54705   -4.02312    0.76585
       O     9.53098   -4.79108    1.36660
      H1    10.34895   -4.65015    1.83214
       H     8.36998   -4.17386    2.28741
       O     7.56546   -3.66414    2.55687
      H1     7.85822   -3.26574    3.38759
       H     8.88765  -11.91913    6.24250
       O     7.99394  -11.55633    6.21698
      H1     7.74285  -11.59237    7.14858
       H     8.91201   -8.59595   10.95994
       O     8.82381   -8.80919   11.89855
      H1     7.96969   -9.22800   11.84457
       H     3.94830  -13.53328    4.19071
       O     3.81502  -12.57737    4.33280
      H1     3.66625  -12.51562    5.28396
       H     7.40249  -11.40765   -1.94210
       O     7.70019  -10.47311   -1.84471
      H1     6.86577  -10.07403   -1.49081
       H     0.66732   -5.46884    5.90290
       O     0.05070   -6.15566    5.48682
      H1     0.27639   -6.10821    4.52649
       H     5.01957   -9.33065    2.60738
       O     4.51156   -8.56803    2.36441
      H1     5.17865   -8.07539    1.94466
       H     3.46376   -6.51679    9.60759
       O     4.30591   -5.98059    9.58161
      H1     4.48741   -6.06784    8.62933
       H    11.67161   -7.29193    4.49583
       O    12.44718   -6.75704    4.37543
      H1    12.71617   -6.99769    3.48115
       H     2.25859   -7.36265    6.65815
       O     2.92147   -8.04111    6.74428
      H1     3.52387   -7.70768    6.01549
       H    10.07459   -7.40145   -0.04979
       O     9.97358   -6.54811   -0.57336
      H1     9.93214   -5.90103    0.19812
       H     4.64390   -9.14923   -2.02863
       O     5.35018   -9.13021   -1.36883
      H1     5.57315   -8.18078   -1.33445
       H     6.39729   -9.08620    6.81908
       O     7.04895   -8.73648    7.37021
      H1     7.75686   -8.62163    6.72341
       H    11.69500   -4.29799    6.83425
       O    10.74979   -4.00352    6.79899
      H1    10.74624   -3.35709    7.53244
       H     5.38766   -5.61781   10.91619
       O     6.13851   -5.61919   11.55624
      H1     6.93180   -5.87893   10.95674
       H     9.10689   -5.62868    9.23062
       O     9.14727   -5.45249   10.19720
      H1     8.94499   -4.49852   10.12880
       H     7.14894   -7.48303    4.65532
       O     8.05239   -7.26997    4.84170
      H1     7.99562   -6.35971    5.16971
       H     8.80273  -13.64514    1.00797
       O     8.85603  -12.66273    0.70080
      H1     9.77747  -12.69468    0.31090
       H     8.16444  -10.45229    0.28909
       O     8.00041   -9.78494    0.97934
      H1     8.05163  -10.31873    1.77899
       H     8.09032   -0.42922    6.13113
       O     8.81179   -0.32732    5.44959
      H1     9.02828   -1.27901    5.19287
       H     2.49611   -5.06067    2.01280
       O     2.98851   -4.72352    1.21764
      H1     3.67248   -4.28834    1.72673
       H     5.24035   -2.00757    1.57350
       O     4.83801   -2.65142    0.94200
      H1     4.53524   -2.08641    0.21175
       H    11.14168  -12.14528    4.42022
       O    10.65823  -12.36653    5.24749
      H1    11.44661  -12.53084    5.86537
       H     9.67913   -9.74868    3.77655
       O    10.26234   -9.05915    4.06223
      H1     9.69096   -8.37233    4.39862
       H     9.60821   -5.46301    7.18769
       O     8.83475   -5.91693    7.59219
      H1     9.03906   -6.84015    7.31231
       H    15.01237   -8.20297    5.92360
       O    14.21057   -7.96131    6.38094
      H1    13.82092   -7.42143    5.68833
       H    13.00453   -6.75194    1.07724
       O    12.55967   -7.53862    1.44456
      H1    11.98335   -7.89034    0.72155
       H     7.24397   -8.00111    1.19017
       O     6.86660   -7.38378    1.72800
      H1     7.58387   -7.05896    2.28455
       H    12.24248   -3.54712    2.67785
       O    11.83603   -4.39481    2.58172
      H1    12.09301   -4.88006    3.39280
       H    11.03018   -8.82775   10.47535
       O    10.86882   -8.28281    9.71036
      H1    10.63065   -8.89487    9.04159
       H     6.34080   -2.92103   -0.18633
       O     6.99403   -3.10718   -0.86459
      H1     7.08704   -2.15284   -1.07634
       H    -0.41520   -8.13609    5.85486
       O    -0.16784   -8.95427    5.38666
      H1     0.40716   -8.67699    4.68931

