180
frame 11 | Written by MDAnalysis XYZWriter (release 2.4.3)
       H    -4.60151    4.75042    6.23578
       O    -5.00723    5.26384    5.50155
      H1    -5.71100    5.74034    5.96989
       H     0.47210   -0.55229    6.60023
       O     0.10226    0.28226    6.26792
      H1    -0.00366    0.18643    5.30836
       H    -2.45614    3.32626    6.85824
       O    -3.36174    3.17756    6.40948
      H1    -3.17276    2.41188    5.81639
       H     0.28631    0.05005   -0.70768
       O    -0.07175   -0.47753   -0.02118
      H1    -1.03737   -0.55132   -0.25337
       H     3.08691    0.79603    8.49071
       O     2.93659    0.93534    9.46457
      H1     2.87529    1.91845    9.50543
       H    -4.60110    7.62114    0.83756
       O    -3.99849    7.21810    0.18541
      H1    -3.52557    6.56351    0.77133
       H     0.35621   10.32384    0.92257
       O     1.17188    9.89239    1.30000
      H1     1.73205    9.87727    0.50836
       H    -0.15645    3.32378   10.06365
       O     0.52327    3.77727   10.59457
      H1     0.01016    4.60633   10.54199
       H    -2.83849    8.38497    6.77408
       O    -2.83750    8.31925    5.80712
      H1    -2.60713    7.40797    5.66698
       H     1.85312    3.79325    9.50646
       O     2.79787    3.54912    9.24377
      H1     3.26626    3.88508   10.02866
       H    -5.38305    5.70819    9.87669
       O    -4.78230    5.19316    9.32731
      H1    -4.34877    4.56878    9.92643
       H     5.40411    3.05632    7.67348
       O     5.09985    3.94374    7.57511
      H1     4.22004    3.95650    7.96785
       H     0.38275   -2.09871    8.02287
       O     1.31325   -1.77796    7.75133
      H1     1.41471   -2.26120    6.96246
       H     2.06964    1.42399    6.57045
       O     2.91155    0.99219    6.72994
      H1     2.82969    0.41481    5.96911
       H    -2.33507    2.89002   10.23702
       O    -2.70486    3.67222   10.69370
      H1    -2.94187    3.28440   11.56572
       H     3.96538   -0.84613    4.66336
       O     3.21374   -1.22927    5.13249
      H1     3.68858   -1.38367    5.98808
       H     3.89633    7.17398    3.02567
       O     3.47080    7.78542    3.67055
      H1     2.65892    8.12337    3.22885
       H    -6.91405    3.39274    7.84078
       O    -6.03154    3.03457    8.06678
      H1    -5.51638    3.90633    8.21963
       H    -4.43804    8.62197    4.76041
       O    -5.37277    8.89431    4.71921
      H1    -5.58498    9.11896    5.65254
       H    -1.04199    7.77831   -0.90212
       O    -1.58161    8.24681   -0.24374
      H1    -2.44671    7.77570   -0.29523
       H    -1.54393    5.45539    1.46974
       O    -2.53297    5.46475    1.64977
      H1    -2.53841    5.87400    2.50881
       H     1.14158    9.46173    8.18333
       O     1.36588   10.36026    7.93546
      H1     1.56109   10.27859    7.03834
       H    -7.37619    6.23836    2.48669
       O    -6.55886    6.59781    2.80637
      H1    -6.09519    5.82406    3.14861
       H    -1.15132    1.21592    3.78467
       O    -0.45877    0.51149    3.58743
      H1    -0.99261   -0.31335    3.50717
       H     0.65088    9.05462    2.84018
       O     0.55771    9.05478    3.81310
      H1     0.10997    8.22015    3.93036
       H     4.42174    3.47782    2.81195
       O     4.93438    3.59379    1.98240
      H1     5.77016    3.10496    2.20559
       H    -0.93287    1.49153    9.27777
       O    -1.13370    2.22680    8.70322
      H1    -0.80391    1.85717    7.86917
       H     6.84684    1.66206    6.91564
       O     6.17659    1.34530    7.56669
      H1     6.55045    1.40734    8.46212
       H     3.01100    3.18825    4.11072
       O     2.28591    3.44544    3.56076
      H1     2.31519    2.67076    3.03983
       H    -3.80326   -1.16579    7.28392
       O    -3.10109   -1.14851    6.58688
      H1    -2.38533   -1.67009    7.00021
       H     4.02373    6.25051    1.00766
       O     4.03992    6.09536    1.93240
      H1     4.50476    5.26596    2.05808
       H    -2.14784    5.16640    4.78109
       O    -2.60028    5.92407    4.41959
      H1    -3.47244    5.75893    4.80948
       H     1.28285    1.54498    1.26670
       O     1.78104    1.29589    2.04655
      H1     1.15781    0.81253    2.65093
       H     0.35630    5.11965    3.04084
       O     0.50252    5.86570    2.40334
      H1     1.37065    5.61642    2.11572
       H     0.48274    3.36805    4.16289
       O    -0.35138    3.63190    4.67958
      H1     0.08652    4.23537    5.28012
       H    -0.32161   -2.31481    3.07198
       O    -1.24288   -2.18578    2.83149
      H1    -1.17142   -1.65584    1.99349
       H    -4.39657    3.36837   -0.34919
       O    -4.45168    3.43903    0.59861
      H1    -3.94076    4.28646    0.66681
       H    -4.31121    1.16740    4.66631
       O    -3.35210    1.14773    4.44716
      H1    -3.14399    0.25356    4.81347
       H     1.69622    2.47645   13.19282
       O     0.99445    2.14553   12.56901
      H1     1.09067    2.77150   11.79241
       H    -0.04491    6.89420    9.09453
       O     0.66751    7.53566    8.77463
      H1     1.48023    6.96311    8.79148
       H     3.99418    7.05003    8.94569
       O     3.31076    6.47879    8.70331
      H1     3.65903    6.31491    7.81540
       H    -2.83994    9.87754    8.52634
       O    -3.24131    8.94267    8.54068
      H1    -4.20511    9.03648    8.62126
       H     1.52458   -3.40973    4.47590
       O     1.00805   -2.62643    4.40238
      H1     1.70019   -1.94903    4.61516
       H    -1.51410    0.47333   11.67906
       O    -0.94213    0.43565   10.87441
      H1    -0.28403   -0.10572   11.30283
       H    -1.87923    5.22598   10.00288
       O    -1.29638    5.98701    9.85343
      H1    -1.31916    6.42250   10.74513
       H     4.00299   -0.86203    1.45767
       O     4.22223    0.08943    1.53305
      H1     3.34790    0.43212    1.71849
       H    -1.57170   -3.19231    5.78005
       O    -0.86520   -2.70644    6.23687
      H1    -0.27789   -2.39798    5.53142
       H     0.95584    8.30272   -0.17713
       O     1.41097    8.12126   -1.01585
      H1     2.25862    7.82030   -0.71413
       H     1.53442    6.04790    6.21229
       O     0.56437    6.16463    6.40145
      H1     0.62366    6.76182    7.12819
       H     6.48661    8.04257    3.03948
       O     6.07335    8.92684    3.19737
      H1     5.15018    8.81630    3.23937
       H     3.57273    3.99575   -0.82411
       O     4.49016    4.26467   -0.59764
      H1     4.54302    3.83539    0.31056
       H     4.41659    2.10903    5.72460
       O     4.69195    2.19733    4.80819
      H1     5.60818    2.45306    4.68301
       H    -4.41211   -0.36733    1.59690
       O    -4.60023    0.37325    0.92316
      H1    -4.60914    1.18229    1.40909
       H     1.79071   10.08693    4.54277
       O     2.24606   10.65618    5.23264
      H1     1.49578   11.32508    5.24043
       H     4.49704    5.43199    5.85164
       O     3.89970    6.24688    6.00917
      H1     3.68149    6.52170    5.10627
       H    -3.15954   11.74560    5.69069
       O    -2.25722   11.30996    5.69133
      H1    -2.50678   10.45110    5.95763
       H     1.01156    7.00978   11.93413
       O     0.20481    7.49257   11.47076
      H1     0.62392    7.82292   10.65655
       H    -6.90137    2.61256    2.08552
       O    -6.40347    3.28644    2.59970
      H1    -5.84106    3.64046    1.82681
       H    -5.80705    2.08919    6.26851
       O    -6.05507    1.80225    5.32820
      H1    -5.96773    2.61250    4.81545
       H     5.69581    0.40796    4.67299
       O     5.66073   -0.30212    3.99591
      H1     5.28365    0.15096    3.27263

