180
frame 0 | Written by MDAnalysis XYZWriter (release 2.4.3)
       H     5.68154    0.37335   -4.56597
       O     4.90537    0.45351   -3.95370
      H1     4.59752   -0.50021   -3.94951
       H     3.01973    0.77294   -5.67479
       O     3.45655    0.16174   -6.28437
      H1     4.33006   -0.01721   -5.85680
       H     5.72536    3.72257   -4.58888
       O     6.19348    3.83522   -3.77187
      H1     6.01518    4.77642   -3.53138
       H     6.37811    8.72617   -4.05030
       O     6.00343    8.08399   -4.65999
      H1     5.08149    8.28204   -4.52242
       H    14.05619    3.67359   -1.47564
       O    14.39693    3.52567   -0.58958
      H1    15.31056    3.86087   -0.76009
       H    12.98347    4.00717   -4.94550
       O    12.73884    3.07115   -5.03646
      H1    12.57016    2.93946   -5.98347
       H    12.66917    6.83413   -4.65964
       O    12.21371    7.62525   -4.84495
      H1    12.78562    8.36080   -4.62666
       H    -0.39771    6.62782   -1.36548
       O     0.34469    6.90276   -1.92470
      H1     1.02315    6.26523   -1.59497
       H    13.81905    5.64193   -2.44765
       O    13.50672    4.83875   -2.84988
      H1    12.52834    4.88819   -2.64282
       H     7.77060    5.16711   -4.02168
       O     8.65250    5.58078   -3.76603
      H1     9.16091    5.20633   -4.49908
       H    10.14443    4.80782   -6.87382
       O    10.11522    4.45001   -5.94724
      H1    10.23571    3.48403   -6.04884
       H    10.49721    7.80423   -3.97054
       O     9.74052    8.16792   -3.51683
      H1     9.18409    7.33821   -3.59095
       H     7.41512    5.97623    1.46856
       O     7.40893    5.37389    2.24286
      H1     6.48792    5.15077    2.35460
       H     7.04509   -0.88219   -5.23925
       O     6.36900   -0.82938   -5.89883
      H1     6.04301   -1.76695   -5.96456
       H     5.90882    7.61288   -6.60474
       O     5.84025    7.48411   -7.55884
      H1     5.96073    6.49181   -7.59936
       H    12.81509   10.79240   -4.04615
       O    13.36045   10.12498   -3.51951
      H1    12.87414   10.27306   -2.71347
       H     9.71073    1.48964  -10.84387
       O    10.11360    2.26127  -11.25524
      H1    10.30655    2.72199  -10.43254
       H     6.16832    1.02883   -1.10657
       O     5.38252    1.32898   -1.47227
      H1     5.50244    1.24757   -2.47094
       H    15.01419    4.13162   -6.10459
       O    14.65672    4.97971   -6.33048
      H1    14.76033    4.95017   -7.26019
       H    11.68784    7.70753   -6.85603
       O    11.31480    8.22530   -7.57801
      H1    10.69211    7.52622   -7.86064
       H     5.93263    7.11800   -2.80873
       O     5.91813    6.20999   -2.50509
      H1     6.60753    6.14483   -1.79523
       H     7.85528    3.71690   -0.67076
       O     8.76675    4.03706   -0.80517
      H1     9.07618    3.73234    0.04283
       H    10.03545    4.07954   -2.03517
       O    10.76949    4.36927   -2.57410
      H1    10.26379    4.93410   -3.14202
       H     4.66604   10.47213   -6.20769
       O     5.50966   10.85221   -6.09199
      H1     5.96518   10.20043   -5.58517
       H    12.62088    1.99123    0.56395
       O    11.68691    1.99248    0.28754
      H1    11.19574    2.19792    1.09045
       H     8.47649    7.39628   -0.46868
       O     7.85324    6.66432   -0.38543
      H1     8.44836    5.90803   -0.55711
       H     3.54022    4.30467    2.36540
       O     4.14461    4.73557    1.71938
      H1     4.31887    4.08151    1.05364
       H    11.10240    2.18568   -4.99078
       O    10.36594    1.63581   -5.35514
      H1    10.70820    1.15246   -6.07922
       H     9.39552   11.41469   -6.06961
       O     9.42230   12.11267   -5.34425
      H1     8.72398   12.68965   -5.67458
       H     6.37508    4.32853   -8.54015
       O     6.76012    4.91122   -7.83233
      H1     6.63395    4.33190   -7.05896
       H    10.55298    7.06361    2.39620
       O    10.59760    7.98893    2.76731
      H1     9.68040    7.93363    3.04664
       H     4.04044    1.79812   -7.39228
       O     4.37313    2.63808   -7.69531
      H1     4.25686    3.19465   -6.88962
       H     3.32410    5.11696   -0.34700
       O     2.34770    5.19644   -0.48234
      H1     2.13552    5.72671    0.24800
       H     4.12590    8.62298   -7.65711
       O     3.52920    9.30060   -7.89140
      H1     4.01468    9.74533   -8.62190
       H     8.92594    5.50054   -8.30900
       O     9.65291    6.01079   -8.56467
      H1     9.25144    6.26653   -9.46232
       H    10.27412    9.40023   -2.14241
       O    10.61362    9.44979   -1.20304
      H1    10.82181   10.45214   -1.09212
       H     8.16314   -0.76520   -3.32647
       O     8.19705   -1.68570   -3.66109
      H1     9.11020   -1.76522   -3.85096
       H    12.94829   -1.41607   -2.06803
       O    12.12327   -1.11255   -2.40633
      H1    12.15740   -0.15904   -2.55445
       H    11.33257    4.87812    2.35861
       O    11.23734    5.54941    1.64361
      H1    11.71858    5.00370    0.98728
       H     8.43583   10.92771   -4.45519
       O     7.92003   10.13759   -4.42597
      H1     8.58470    9.45332   -4.42497
       H     6.42039    9.91176   -1.75323
       O     6.36580    8.99079   -2.05171
      H1     7.09913    8.58364   -1.52006
       H     0.55946    7.15312   -4.54396
       O     1.04196    6.65389   -5.14944
      H1     0.75109    6.95830   -6.00592
       H     7.06872    8.62632   -8.04059
       O     7.69263    9.10930   -8.61781
      H1     8.43861    9.50845   -8.15868
       H    12.55972    2.54550   -3.16653
       O    12.35345    1.85519   -2.55721
      H1    11.84550    2.34288   -1.87090
       H     8.85221    9.90232   -0.23761
       O     8.08034    9.49459    0.21482
      H1     7.31287   10.05736    0.16559
       H     4.15208    9.52620    0.64697
       O     4.28522    8.81735   -0.04897
      H1     4.74059    9.21323   -0.80088
       H    12.11789    9.19049   -0.74091
       O    13.08531    9.27279   -0.58506
      H1    13.42793    8.49261   -1.04363
       H    10.66687    4.79246   -9.11246
       O    11.03022    3.95577   -9.43268
      H1    11.73426    4.29931  -10.02803
       H     5.52439    4.56918   -1.26485
       O     5.26603    3.82036   -0.69228
      H1     5.36945    2.96392   -1.23960
       H     3.25149   -0.93455   -0.05850
       O     3.21266   -0.54690   -0.97709
      H1     4.04268    0.05476   -0.90290
       H     1.18598    8.42381   -1.77635
       O     1.69104    9.23167   -1.40681
      H1     2.46433    8.84003   -0.92104
       H     8.59393    2.03763   -3.12181
       O     8.36509    1.22279   -3.57145
      H1     9.00521    1.36737   -4.33414
       H    10.60241   10.25591   -7.54369
       O     9.73089   10.69020   -7.69380
      H1     9.98120   11.58404   -7.77192
       H    11.73944    2.91152   -8.39042
       O    12.16408    2.35817   -7.66922
      H1    11.95795    1.47831   -7.97479
       H     7.88853    0.85006    0.42276
       O     7.96471    0.88493   -0.55921
      H1     8.84962    0.52243   -0.52699
       H    13.18867   11.35329   -6.79015
       O    12.37807   11.00478   -6.42444
      H1    12.30671   10.06224   -6.70101
       H     5.33306    2.98495   -9.23847
       O     6.01311    3.33960   -9.84455
      H1     5.68858    3.30007  -10.76133
       H     8.93755   -0.47904   -8.31773
       O     8.95307   -0.55573   -7.31669
      H1     8.03530   -0.69927   -7.07849
       H     2.81048    8.56967   -5.26468
       O     3.08407    8.86515   -4.39223
      H1     2.51492    8.29115   -3.87942
       H     3.54866    4.30150   -4.98189
       O     3.90717    4.52223   -5.87239
      H1     3.32274    5.21699   -6.16868

