180
frame 4 | Written by MDAnalysis XYZWriter (release 2.4.3)
       H   -11.84729    7.30886   14.52950
       O   -10.89043    7.13170   14.35624
      H1   -10.53341    7.68491   15.07284
       H   -16.79197   18.94787   13.36727
       O   -17.68747   18.57919   13.60312
      H1   -17.51980   17.57428   13.53504
       H   -17.62711    6.54730    9.71520
       O   -17.93518    6.64123   10.66396
      H1   -18.07620    7.63781   10.71995
       H   -12.73534   10.27616   19.30752
       O   -13.00053   10.37971   18.31567
      H1   -13.96657   10.27285   18.38601
       H   -15.19849    7.44403   11.57030
       O   -15.83491    7.23893   12.23700
      H1   -16.63104    7.23367   11.57440
       H   -13.79265   16.28060   10.16666
       O   -14.46480   16.93368    9.96391
      H1   -14.34408   16.92072    8.99464
       H   -16.79365   15.02927   18.35623
       O   -16.83174   15.90601   18.83718
      H1   -17.61072   16.21997   18.38437
       H   -17.48463    3.24533   16.34242
       O   -16.65763    2.73635   16.27823
      H1   -16.04216    3.50331   16.24237
       H   -13.83144   15.84071   16.73236
       O   -13.25296   15.24298   16.25722
      H1   -13.06384   14.58245   16.96462
       H   -12.82374   10.15859   13.94502
       O   -12.51092   11.03216   13.60799
      H1   -11.58777   10.83958   13.71830
       H   -16.35222   15.49422   14.33885
       O   -17.07265   16.11931   14.28192
      H1   -16.85398   16.65654   15.04074
       H   -13.25920   16.58785   14.08920
       O   -12.61948   16.82492   13.43141
      H1   -12.48685   17.73514   13.65150
       H   -15.28595   10.14465    7.38072
       O   -16.16493   10.01925    7.83594
      H1   -15.76650    9.54853    8.63262
       H   -13.99775    8.73637   14.94832
       O   -13.31904    8.45858   14.34923
      H1   -13.84874    7.94694   13.76928
       H   -14.86473   17.92870   16.34366
       O   -15.08525   16.98894   16.64793
      H1   -15.60174   17.31517   17.42109
       H   -13.94227    3.85167   15.73642
       O   -14.41208    4.65101   15.57993
      H1   -14.01481    5.21521   16.24810
       H   -18.38416    5.75105   18.36378
       O   -17.63986    6.19533   17.93974
      H1   -17.92130    7.12174   18.02690
       H   -12.26690   17.05716   19.66087
       O   -12.11943   17.64930   18.90302
      H1   -11.56731   17.05306   18.31504
       H   -14.71747   19.47133   14.89827
       O   -14.41363   19.40298   15.78216
      H1   -13.38823   19.26081   15.66235
       H   -19.68262    9.47042    8.47270
       O   -19.24327   10.20585    8.84962
      H1   -18.41117   10.20092    8.33766
       H   -16.49224   10.18496   14.76740
       O   -16.73067    9.25090   15.02655
      H1   -17.65608    9.12721   14.69298
       H   -12.36851    8.72002   17.98659
       O   -11.89274    7.98375   18.34052
      H1   -12.48128    7.27465   18.11858
       H    -9.87413   10.15908   14.70706
       O    -9.99142   10.34614   13.76622
      H1    -9.75666    9.45155   13.47143
       H   -16.05916   12.29122   18.78132
       O   -15.40680   12.83894   19.27720
      H1   -15.87843   12.82229   20.11618
       H   -17.84795   16.95554   10.83464
       O   -17.45044   16.19130   10.36516
      H1   -16.57087   16.50190   10.30195
       H   -16.08010    7.59186    5.60059
       O   -15.78900    7.56473    6.54429
      H1   -16.07001    8.41939    6.85074
       H   -10.75920    8.12695   10.95912
       O   -11.69090    8.25274   11.04957
      H1   -11.96191    7.52347   10.39998
       H   -18.75713    1.97365   14.01690
       O   -18.05598    1.33170   14.20565
      H1   -17.49737    1.95709   14.69148
       H   -18.90330    9.54008   10.42357
       O   -18.57816    9.16639   11.27484
      H1   -17.94959    9.82485   11.59892
       H    -9.20584   14.61261   12.18080
       O    -9.67233   15.46312   12.38778
      H1   -10.59639   15.27062   12.33256
       H   -18.09317    5.12949   14.98652
       O   -18.60265    4.88605   15.73987
      H1   -18.22305    5.43139   16.41983
       H   -19.84213   16.90352   17.88495
       O   -18.95288   17.28260   17.72126
      H1   -18.99271   18.10708   18.24827
       H   -12.91312   12.30227   17.78219
       O   -12.84432   13.21986   18.00127
      H1   -13.54145   13.31123   18.66011
       H   -11.72896   15.98695   16.44305
       O   -11.07954   16.65460   16.60993
      H1   -10.37997   16.52499   15.96665
       H   -11.02816   11.88787   12.08169
       O   -11.28299   11.97760   11.14501
      H1   -12.05884   11.42685   11.00126
       H   -19.18344    9.06501   13.19746
       O   -19.31795    9.11198   14.16715
      H1   -19.59828    8.21535   14.35348
       H   -18.10481   17.29393    8.80900
       O   -18.19925   18.23663    8.51054
      H1   -18.36159   18.71941    9.34956
       H   -16.95919    4.15181   10.81157
       O   -17.05291    3.49038   11.55023
      H1   -16.97197    4.06798   12.33517
       H   -13.21363   14.53716   11.47512
       O   -12.71152   15.33068   11.10564
      H1   -12.58352   15.81236   11.94032
       H   -16.28350    5.96454   13.10735
       O   -16.63251    5.24389   13.69605
      H1   -15.90065    5.05965   14.30111
       H   -16.85472    6.50911    7.67880
       O   -17.11319    5.83770    8.33198
      H1   -16.26755    5.36878    8.45912
       H   -16.60806   11.91932   13.31009
       O   -16.60281   11.83874   14.27815
      H1   -17.51025   11.74096   14.56355
       H   -13.11341    5.45196   18.52685
       O   -13.06001    5.68303   17.59481
      H1   -12.18528    5.27796   17.58318
       H   -18.47858   19.18690   11.90347
       O   -18.51899   19.08008   10.92070
      H1   -19.31795   19.59851   10.74352
       H   -18.14482   14.50137   10.64229
       O   -18.66279   13.72391   10.96334
      H1   -18.99532   13.50392   10.04050
       H   -17.24909   12.66587   11.52552
       O   -16.58789   11.92668   11.55846
      H1   -15.65211   12.33164   11.55229
       H   -14.09412   18.54292   10.55815
       O   -13.89447   19.51293   10.72459
      H1   -12.94741   19.58660   10.58214
       H    -9.44843    9.07896   16.97536
       O   -10.16170    9.06608   16.32421
      H1   -10.88484    8.79029   16.93363
       H   -19.64876   11.85995   15.38965
       O   -18.93021   12.51450   15.51684
      H1   -19.21193   13.16416   14.81190
       H   -18.77188   11.81997    6.11717
       O   -18.72813   12.76875    6.34284
      H1   -19.44001   13.16904    5.86229
       H   -19.12069   14.16139   12.71397
       O   -19.31183   14.31731   13.62117
      H1   -18.59198   14.78561   13.97493
       H   -17.54173   10.92311   17.39814
       O   -17.14380   11.86081   17.39600
      H1   -17.73441   12.15865   16.67698
       H   -14.69264   14.55996   15.29337
       O   -15.16324   14.29524   14.49333
      H1   -15.68135   13.49048   14.74354
       H   -12.55173    9.69412   10.49836
       O   -13.37933   10.20461   10.55940
      H1   -13.55680   10.31660   11.50710
       H   -11.20930   19.64698   15.30473
       O   -11.86764   18.97675   14.94524
      H1   -11.64694   18.11427   15.43887
       H   -14.25876    8.99925   10.01168
       O   -15.04288    8.51566    9.73412
      H1   -14.56090    7.88133    9.20055
       H    -9.69078   14.76954   19.05761
       O    -9.97338   13.86924   19.20061
      H1   -10.92430   14.01203   18.91324
       H   -13.37544   12.51237   12.41133
       O   -14.11460   13.13618   12.17687
      H1   -14.39447   13.58746   13.00620
       H   -16.91217    9.11356   16.98413
       O   -17.49063    9.24241   17.75856
      H1   -16.79888    9.06841   18.43858
       H   -17.28443   11.24586    5.09199
       O   -17.63529   10.49325    5.56943
      H1   -16.84757   10.33242    6.16503

