180
frame 0 | Written by MDAnalysis XYZWriter (release 2.4.3)
       H     8.30774   10.06489    2.27736
       O     7.88819   10.03873    3.17162
      H1     8.69219   10.15711    3.72002
       H     9.75457   13.19458   -8.82031
       O     9.95232   13.57419   -7.96187
      H1    10.67843   14.23743   -8.17978
       H     8.43657   15.73305   -4.46857
       O     9.19132   15.73227   -3.87630
      H1     8.95116   16.28139   -3.13651
       H     7.28804   15.66695    5.41969
       O     7.64446   15.20365    4.66187
      H1     7.82456   14.32135    5.02145
       H    11.89285   14.75147    3.46431
       O    10.96432   14.70102    3.29661
      H1    10.63847   15.45945    3.73918
       H     6.37811    8.72617   -4.05030
       O     6.00343    8.08399   -4.65999
      H1     5.08149    8.28204   -4.52242
       H    13.77522   18.51134   -3.17537
       O    12.81109   18.30988   -3.05563
      H1    12.85775   17.77776   -2.26688
       H     6.67567   14.56445   -1.98511
       O     6.98582   13.67231   -1.84748
      H1     6.69958   13.33206   -2.74841
       H    11.65111   17.82778    3.05228
       O    10.93509   17.52517    3.63483
      H1    11.30315   17.36999    4.51519
       H     7.12389   13.81247    2.04993
       O     7.26987   12.86259    2.06204
      H1     6.84342   12.67108    2.88322
       H     3.36064   15.86587   -1.97497
       O     3.78138   16.73849   -2.21938
      H1     3.13965   17.08116   -2.90283
       H     4.90942   14.71883    1.83839
       O     4.18335   14.33908    1.29301
      H1     4.36097   13.39815    1.19791
       H    13.64032   14.68068   -0.43903
       O    12.76340   14.59871    0.01242
      H1    12.59167   13.65398   -0.06160
       H    10.49721    7.80423   -3.97054
       O     9.74052    8.16792   -3.51683
      H1     9.18409    7.33821   -3.59095
       H     4.31460   11.72396   -1.14290
       O     3.48641   11.83967   -1.63650
      H1     2.92726   11.12456   -1.38657
       H    12.23591   19.30287    0.97746
       O    12.56251   18.43870    1.39817
      H1    13.41669   18.32801    0.93596
       H    10.80865   12.63747   -0.88045
       O    11.12198   11.89627   -0.33428
      H1    10.58668   12.08432    0.48406
       H    12.07262   15.93058   -7.88450
       O    12.27421   15.36609   -7.17846
      H1    11.84470   15.84020   -6.42675
       H     5.55063   11.34752    0.63017
       O     5.86752   11.28921   -0.30455
      H1     6.24906   12.20459   -0.42765
       H    13.72676   12.52731    1.92828
       O    14.42515   12.53084    1.22645
      H1    15.07250   12.03004    1.70946
       H    12.81509   10.79240   -4.04615
       O    13.36045   10.12498   -3.51951
      H1    12.87414   10.27306   -2.71347
       H     9.19817   15.25280    1.04304
       O     8.82852   16.11625    1.20976
      H1     9.56301   16.59754    1.63664
       H     4.85072    9.80239    2.07200
       O     4.38211   10.68585    1.96312
      H1     3.41082   10.47046    2.22905
       H     2.85546   13.51724   -1.63701
       O     2.37053   14.37819   -1.55982
      H1     2.11691   14.30260   -0.63663
       H    14.44464   12.09924   -0.68477
       O    14.67691   11.60735   -1.46831
      H1    14.07008   10.84921   -1.36760
       H     9.36256   19.75541   -1.97742
       O     9.31990   19.64709   -1.02741
      H1     9.26133   18.66190   -1.13155
       H    11.13071   14.15090   -3.75060
       O    11.58685   13.27715   -3.95044
      H1    10.90795   12.75771   -4.35418
       H     3.11314   16.06815   -5.05740
       O     2.52592   15.46415   -5.55679
      H1     1.93183   15.19050   -4.82106
       H     4.66604   10.47213   -6.20769
       O     5.50966   10.85221   -6.09199
      H1     5.96518   10.20043   -5.58517
       H     8.47649    7.39628   -0.46868
       O     7.85324    6.66432   -0.38543
      H1     8.44836    5.90803   -0.55711
       H     5.89473   17.63326    3.11522
       O     5.73606   18.57407    3.39209
      H1     5.66603   18.41655    4.38262
       H     9.57095   18.32496   -6.39746
       O     8.93478   19.04106   -6.30200
      H1     8.80699   19.36312   -7.23009
       H     4.66686   12.14660   -3.19199
       O     5.40705   12.38976   -3.68872
      H1     5.17269   12.02873   -4.56683
       H     8.47073   13.95469   -1.57036
       O     9.36248   14.07070   -1.14511
      H1     9.74272   14.70339   -1.85424
       H     9.39552   11.41469   -6.06961
       O     9.42230   12.11267   -5.34425
      H1     8.72398   12.68965   -5.67458
       H     5.37666   16.39883   -1.93714
       O     6.37492   16.28029   -1.95561
      H1     6.54237   16.91463   -2.73158
       H    10.27412    9.40023   -2.14241
       O    10.61362    9.44979   -1.20304
      H1    10.82181   10.45214   -1.09212
       H    11.48538   11.60734    2.67310
       O    12.28053   11.18691    3.09939
      H1    12.51503   10.55329    2.39438
       H     4.60956   18.20390   -0.49212
       O     5.51080   18.15570   -0.12041
      H1     6.00831   17.46239   -0.55910
       H     9.01863   12.84438    2.05074
       O     9.88682   12.51257    2.10534
      H1    10.24597   13.32130    2.55983
       H     8.43583   10.92771   -4.45519
       O     7.92003   10.13759   -4.42597
      H1     8.58470    9.45332   -4.42497
       H     6.42039    9.91176   -1.75323
       O     6.36580    8.99079   -2.05171
      H1     7.09913    8.58364   -1.52006
       H    10.61326   16.56176   -5.01355
       O    11.26263   17.12193   -5.33904
      H1    11.70460   17.22536   -4.47117
       H     6.08533   15.85660   -9.28612
       O     6.29496   15.73232   -8.34338
      H1     6.69614   14.86182   -8.15120
       H     8.85221    9.90232   -0.23761
       O     8.08034    9.49459    0.21482
      H1     7.31287   10.05736    0.16559
       H     4.15208    9.52620    0.64697
       O     4.28522    8.81735   -0.04897
      H1     4.74059    9.21323   -0.80088
       H    12.11789    9.19049   -0.74091
       O    13.08531    9.27279   -0.58506
      H1    13.42793    8.49261   -1.04363
       H     6.81470   13.53600   -6.47889
       O     7.13515   13.78913   -5.66896
      H1     6.26486   13.75197   -5.20748
       H     6.79675   15.63822    3.02753
       O     6.35167   15.86627    2.22390
      H1     7.09958   16.19450    1.70122
       H    15.53595   14.05138   -4.64147
       O    15.08957   14.84288   -4.39365
      H1    14.32748   14.90033   -5.00804
       H    15.81234   14.74618   -1.45163
       O    14.85300   15.06628   -1.65616
      H1    14.83073   14.69073   -2.54082
       H     6.40745   11.76548   -7.48451
       O     6.36056   12.59463   -7.97099
      H1     5.45125   12.81261   -7.95800
       H    10.60241   10.25591   -7.54369
       O     9.73089   10.69020   -7.69380
      H1     9.98120   11.58404   -7.77192
       H     4.79392   18.14594   -4.86595
       O     3.92120   18.08155   -5.30537
      H1     4.21393   18.33458   -6.22051
       H    12.36532   16.19135   -0.34513
       O    12.01222   17.00646   -0.74401
      H1    12.19721   17.65029    0.00676
       H     1.13537   15.24843    1.15392
       O     1.42866   14.31663    1.29075
      H1     2.37234   14.52411    1.42204
       H     2.90589   13.51210   -5.57689
       O     3.11461   12.55125   -5.72858
      H1     2.49609   12.16422   -4.99711
       H     6.88202   18.44550   -4.94699
       O     6.38414   18.25378   -4.19399
      H1     6.33770   19.13280   -3.79189
       H     9.13389   16.53370   -0.65596
       O     9.42803   17.00772   -1.45971
      H1    10.41910   16.99196   -1.43297
       H     5.21591   11.25145    3.84942
       O     5.92972   11.67024    4.38159
      H1     6.66178   11.14728    4.02349

