180
frame 5 | Written by MDAnalysis XYZWriter (release 2.4.3)
       H    -4.44198   -8.71411    5.65286
       O    -5.15812   -8.10700    5.50309
      H1    -5.79696   -8.19422    6.20634
       H    -2.25580   -8.27370    0.71709
       O    -3.05568   -8.65392    1.11814
      H1    -3.51173   -7.92875    1.60087
       H    -4.67474  -16.46298   10.41023
       O    -4.82800  -16.37787    9.42814
      H1    -4.45210  -17.26004    9.06104
       H    -7.87585   -9.52854    2.18310
       O    -8.47201   -9.88571    1.53680
      H1    -8.34967   -9.34829    0.71382
       H    -0.47928  -16.82021    2.33235
       O     0.50976  -16.91164    2.46264
      H1     0.83160  -15.99108    2.66755
       H    -0.11472  -12.82832    6.48935
       O    -0.11662  -11.92087    6.84759
      H1     0.77781  -11.64056    6.83682
       H     1.72934  -14.08877    2.24661
       O     2.41367  -14.46667    2.80945
      H1     2.93427  -14.87399    2.15791
       H    -5.72284  -17.52021    5.81071
       O    -4.91893  -16.91241    5.69731
      H1    -5.27079  -16.06809    5.41733
       H   -10.18530  -17.02926    2.36031
       O    -9.36723  -17.26627    2.81485
      H1    -9.62380  -17.81550    3.60455
       H    -6.99425  -12.40556    5.62497
       O    -6.74559  -12.18603    4.70393
      H1    -7.60005  -12.45399    4.20472
       H    -2.83025  -19.29847    2.53017
       O    -2.13750  -19.91163    2.78747
      H1    -1.82758  -19.57275    3.61935
       H    -8.02510  -11.10429   10.24764
       O    -7.10069  -11.24414    9.92526
      H1    -7.15563  -11.34565    8.97612
       H    -8.69648  -12.58986   12.06627
       O    -7.96536  -13.11891   12.25317
      H1    -7.44071  -13.10056   11.41029
       H     2.09469  -11.04566    3.85937
       O     2.51841  -10.51517    3.19848
      H1     1.82181  -10.13326    2.68601
       H    -9.06204  -13.91142    4.13396
       O    -8.98940  -13.14828    3.56219
      H1    -8.78191  -13.44537    2.64481
       H   -10.65863  -14.85166    8.39129
       O    -9.79133  -15.27348    8.73215
      H1   -10.14123  -16.18096    8.90215
       H    -3.48851  -10.33418    6.91298
       O    -3.05089   -9.74053    6.28136
      H1    -3.00767  -10.15135    5.38885
       H     0.21866  -14.49778    4.87919
       O     0.86469  -14.48084    5.60507
      H1     1.71024  -14.11777    5.24774
       H    -3.24350  -16.26016    7.14068
       O    -2.30053  -16.17814    7.28119
      H1    -2.09144  -16.86570    6.66359
       H    -3.92483  -14.96871    9.91431
       O    -3.43836  -14.19417   10.21334
      H1    -2.49835  -14.64645   10.15532
       H   -11.22425  -11.58190    5.22124
       O   -11.25765  -11.90423    4.30704
      H1   -10.44691  -12.42381    4.17274
       H    -9.46160  -16.22173    4.23598
       O    -9.44307  -15.54658    4.95762
      H1   -10.44608  -15.62991    5.22094
       H     0.01163  -18.63315    9.07570
       O    -0.81758  -18.14318    9.34935
      H1    -0.56724  -17.22695    9.47645
       H    -3.94025  -13.67649   11.90790
       O    -4.38273  -13.62669   12.77885
      H1    -5.11183  -14.25106   12.75548
       H    -7.60217  -16.73866    2.75876
       O    -6.73789  -16.28053    2.75785
      H1    -6.62557  -15.95908    1.80626
       H    -5.34069  -12.19726    1.20866
       O    -5.29624  -12.40564    2.15708
      H1    -5.13294  -13.32685    2.26928
       H    -7.27247  -18.53879    9.94028
       O    -8.15680  -18.33475    9.58861
      H1    -7.86775  -18.25223    8.64230
       H    -2.33637  -17.13285    4.50041
       O    -1.98243  -17.77870    5.17139
      H1    -1.02835  -17.85829    4.95714
       H    -8.03256  -10.43048    5.49615
       O    -8.62612   -9.70457    5.42737
      H1    -8.96803   -9.59294    4.57050
       H    -3.64480  -18.76206    7.50766
       O    -3.48083  -18.62211    8.46065
      H1    -2.57126  -18.39849    8.57852
       H     1.13799  -10.28735    9.70247
       O     0.30155  -10.58315    9.46796
      H1     0.39757  -11.26753    8.78555
       H    -5.13628  -15.10709   -0.41336
       O    -4.23716  -14.85299   -0.56693
      H1    -3.69626  -15.65659   -0.56856
       H    -1.13472   -9.31228    6.98293
       O    -0.30724   -8.76522    7.08108
      H1     0.03763   -8.93013    7.96950
       H    -2.91210  -14.71238    6.56913
       O    -3.28147  -13.90016    6.15188
      H1    -3.99723  -14.13531    5.51889
       H    -5.98761  -13.75040    4.27905
       O    -5.49286  -14.57157    4.31698
      H1    -6.00370  -15.16859    3.67704
       H    -8.42784  -17.99566    6.42116
       O    -7.56233  -17.99876    6.85880
      H1    -7.34854  -17.04053    7.06031
       H    -5.67923  -19.25791   -0.14027
       O    -4.92777  -19.66087    0.42556
      H1    -4.75129  -18.95852    1.07169
       H    -1.41580  -15.38200   -0.93231
       O    -1.90525  -16.20691   -0.72612
      H1    -1.35569  -16.93740   -1.03201
       H    -3.60754  -10.31164    3.01703
       O    -3.34216  -10.99974    3.67339
      H1    -3.96255  -11.72759    3.55603
       H    -3.12036  -14.63371   13.17872
       O    -2.30400  -15.12508   13.14286
      H1    -2.36179  -15.43593   12.23226
       H    -2.08609  -15.89111    1.06636
       O    -2.07188  -16.06981    2.03891
      H1    -1.90379  -15.22038    2.53601
       H    -2.51311   -7.46962    8.97149
       O    -3.16060   -8.17275    8.91304
      H1    -3.01487   -8.51860    8.02753
       H     0.46963  -17.45626    7.34588
       O     0.85598  -17.30814    6.51396
      H1     0.72713  -16.36772    6.32583
       H    -3.45644  -17.25827    2.46841
       O    -4.19153  -17.84668    2.41279
      H1    -4.91571  -17.28823    2.71282
       H    -4.61917  -11.69085   -1.45599
       O    -5.27242  -12.22513   -0.93732
      H1    -4.89511  -13.11515   -0.85353
       H    -0.13409   -9.56747    5.18069
       O    -0.06872   -9.33314    4.22488
      H1     0.54257   -8.58082    4.27061
       H    -7.54059  -15.67874   -0.74968
       O    -7.12589  -15.15873   -0.04301
      H1    -7.60994  -14.34697    0.15474
       H     2.36595  -16.11423    9.05076
       O     1.60584  -15.76707    9.60202
      H1     1.90023  -15.44909   10.46774
       H    -7.88940  -15.29181    8.08826
       O    -6.96871  -15.41252    7.68692
      H1    -6.42869  -15.82460    8.36289
       H    -8.43989  -11.82736    1.31494
       O    -8.64122  -12.60830    0.80971
      H1    -9.24422  -12.21653    0.13902
       H    -0.37188  -11.16146    3.34620
       O    -0.22041  -11.89415    2.75747
      H1    -0.82233  -11.66295    2.01246
       H     0.81639  -18.51313    5.13084
       O     0.54609  -19.05237    4.34771
      H1     1.02128  -18.56746    3.59971
       H    -0.77084  -13.31964    3.49214
       O    -1.22693  -14.13692    3.78032
      H1    -1.92715  -13.96646    4.46044
       H    -3.63433  -11.85358    8.88857
       O    -3.92302  -11.64048    7.97677
      H1    -3.50593  -12.34271    7.46660
       H    -6.92252  -13.53036    7.51502
       O    -6.71110  -12.60852    7.38091
      H1    -5.76184  -12.68032    7.47447
       H    -3.36126  -18.97045    5.44414
       O    -3.59072  -19.62333    6.06402
      H1    -2.75527  -20.13492    6.16733
       H    -6.29774  -10.56129    3.72483
       O    -6.33495   -9.65671    3.36905
      H1    -5.99966   -9.19311    4.13848
       H    -4.75012  -10.58483   11.04273
       O    -3.90832  -10.45888   10.64321
      H1    -3.99641   -9.66290   10.07328
       H    -2.17110  -10.58983    0.18063
       O    -1.53695  -11.20118   -0.31121
      H1    -0.70757  -10.68778   -0.39045
       H     0.03807  -15.10405   10.20716
       O    -0.83816  -14.92398   10.52103
      H1    -0.63938  -14.16527   11.10608

