180
frame 5 | Written by MDAnalysis XYZWriter (release 2.4.3)
       H    14.00858    5.30506   17.92845
       O    13.32477    5.10982   17.24280
      H1    13.55489    5.84277   16.67376
       H    10.63615    6.74411   18.74336
       O    11.00627    6.18217   19.45258
      H1    11.06015    5.39832   18.97004
       H     8.73956    7.30585   12.15726
       O     9.06481    7.88050   11.43020
      H1     8.53355    8.66983   11.32306
       H    10.66572   -3.22075   15.55820
       O    10.39790   -3.57077   16.38724
      H1    10.42092   -4.54081   16.36671
       H     6.87737    4.21615   10.95877
       O     6.11005    3.61056   11.05271
      H1     6.46607    2.78468   11.35172
       H    11.25463    8.45662   17.39767
       O    10.29443    8.32945   17.56593
      H1    10.09472    8.46968   18.55786
       H     2.98602    3.75621    9.69093
       O     3.44938    4.05105   10.46552
      H1     4.31781    3.74565   10.53894
       H    11.80176    4.29029   17.90562
       O    10.84659    4.11164   17.77628
      H1    10.71961    3.26493   18.18432
       H     9.11010    3.83853   16.78037
       O     8.43171    3.64125   16.08756
      H1     8.86914    3.95718   15.32107
       H    15.84949   -1.58916   18.55807
       O    15.84265   -0.64288   18.69934
      H1    15.00853   -0.40271   19.16063
       H     3.90811   -1.91018   13.35433
       O     4.35804   -2.74951   13.47928
      H1     3.72832   -3.30118   13.94272
       H     7.42226   -2.34983   11.23324
       O     7.33397   -1.54502   10.70350
      H1     6.69511   -1.79681   10.04223
       H     5.33774    5.13125   18.45443
       O     5.11058    6.04866   18.73893
      H1     4.63775    6.20782   17.92894
       H    16.52380    0.84939   15.87205
       O    15.91840    0.15060   16.19827
      H1    16.11095    0.04186   17.15654
       H    11.18399    3.23437   15.19377
       O    11.40416    2.32492   15.07963
      H1    12.03067    2.30649   14.37882
       H    14.06650    2.44662   12.87629
       O    13.32751    1.89959   13.14411
      H1    12.97484    1.59196   12.30972
       H     3.16719    6.03524   16.40211
       O     3.89966    6.69312   16.40454
      H1     3.44586    7.50558   16.33917
       H    16.03122    3.35741   13.38364
       O    15.23721    3.57523   13.90578
      H1    15.10712    2.85886   14.53667
       H    13.04650   -2.54676   12.89864
       O    12.66376   -1.70523   13.11086
      H1    12.33128   -1.40999   12.22275
       H    12.05140    7.23795   14.63587
       O    11.48338    7.13962   13.85974
      H1    11.49814    8.03839   13.42617
       H     5.29072   -3.02643   16.16337
       O     6.01889   -2.87467   15.54214
      H1     5.64731   -2.68003   14.63272
       H     5.15951    3.93490   14.88989
       O     5.15652    2.99567   14.59934
      H1     4.44309    2.65492   15.12624
       H    13.48601    0.22326   16.15219
       O    12.71658   -0.32992   15.99546
      H1    12.60823   -0.35479   15.02775
       H     4.67139   -1.07704   17.23755
       O     4.67395   -0.44900   16.49370
      H1     5.35550   -0.88018   15.95013
       H     9.48762    8.47609   16.03216
       O     8.95405    8.91120   15.36173
      H1     8.69026    8.15310   14.79153
       H     5.01451    6.07083   15.20831
       O     5.61659    5.64461   14.59649
      H1     5.16260    5.74801   13.77115
       H     3.28121    0.65172   13.77079
       O     3.15351   -0.25767   14.15223
      H1     3.70082   -0.28718   14.99377
       H    10.35256    1.27012   13.91386
       O    10.10022    0.66538   13.21277
      H1     9.29133    0.95979   12.91273
       H     7.39840    2.76159   13.87007
       O     7.89613    3.11954   13.11114
      H1     7.25921    3.60059   12.61949
       H     3.03966    2.08803   19.17031
       O     3.78715    1.63355   18.69890
      H1     4.43552    2.37545   18.54536
       H     8.89567    5.97126   14.18239
       O     8.12401    6.58552   14.10249
      H1     7.30174    6.08905   14.25428
       H     7.01972   -2.94665   17.86187
       O     7.83350   -3.51214   18.05115
      H1     8.52616   -3.14952   17.47337
       H     9.60593    0.23527    8.64778
       O     8.84306    0.37863    9.22188
      H1     8.62263   -0.45426    9.71496
       H    15.32105    2.34593   18.30466
       O    15.91776    2.79391   18.93758
      H1    16.78679    2.37493   18.84583
       H     6.01427    1.82488    8.15567
       O     5.36756    2.31162    8.69852
      H1     5.87028    2.83930    9.33908
       H    11.84864   -2.78157   17.31659
       O    12.62559   -2.23769   17.75965
      H1    12.78964   -1.52990   17.10428
       H     7.59461   -4.11080   12.73731
       O     7.82677   -3.18504   12.60267
      H1     8.47701   -2.95393   13.26338
       H     1.31495    4.67025   17.42864
       O     1.84732    4.82182   16.63106
      H1     2.32469    4.01451   16.44567
       H    11.99575   -0.42491   10.70862
       O    11.80236    0.48889   10.95451
      H1    11.07687    0.60734   11.56355
       H     1.85308    2.13901   15.97287
       O     2.76156    2.31639   16.10902
      H1     2.96195    1.77891   16.93937
       H     2.88312    4.69445   12.32043
       O     3.21238    5.25964   12.97120
      H1     2.39306    5.39094   13.52198
       H     6.24414   -0.01386   11.15872
       O     6.04515    0.88523   11.41033
      H1     5.10777    0.95214   11.75675
       H    12.82452    6.07872   13.20964
       O    13.49552    5.62435   12.67970
      H1    14.06451    5.12264   13.32709
       H     6.35350    3.83196   17.10827
       O     5.87054    3.65168   17.94405
      H1     6.53562    3.23049   18.51831
       H    13.56008   -3.59540   16.25860
       O    13.82839   -4.50296   16.29029
      H1    14.78131   -4.50808   16.45600
       H    10.38652    4.88013   13.01931
       O     9.85931    4.61491   13.73457
      H1     9.15201    4.05205   13.37934
       H     9.20823    2.34375   19.49628
       O     9.86365    1.78180   19.03554
      H1    10.46064    1.48034   19.74109
       H     7.76644   -0.21267   17.80825
       O     6.94354   -0.38335   18.24144
      H1     6.25949   -0.20575   17.59885
       H     4.17685   -3.20426   17.65965
       O     4.81933   -2.62472   18.10826
      H1     4.60484   -2.71390   19.05009
       H    12.92526    1.85112   16.82736
       O    13.74181    2.19459   17.24337
      H1    13.75538    3.08985   16.93894
       H     6.62945   -5.54253   14.75333
       O     7.46836   -5.25715   15.14041
      H1     7.25189   -4.29627   15.26976
       H     6.78604    6.82978   19.17859
       O     7.74403    7.09010   19.24738
      H1     8.17073    6.25138   19.09622
       H    10.88021    4.34497   10.67357
       O    11.13589    5.01662   11.31230
      H1    12.01605    4.77265   11.63080
       H     3.87394    2.61202   13.35238
       O     3.57118    1.88759   12.79763
      H1     3.13422    2.28044   12.02719
       H     8.59574    1.70517   16.21300
       O     9.08690    0.89014   16.17507
      H1     9.97788    1.16310   15.88048
       H     8.80724    3.53880   10.13410
       O     9.58173    2.97028   10.19448
      H1     9.26869    2.12886   10.44276
       H     6.71600   -5.92873   16.69115
       O     6.89540   -6.11979   17.63283
      H1     7.24599   -5.22553   17.86735
       H     9.34285   -3.50972   10.56802
       O    10.05607   -3.72084   11.15149
      H1     9.74742   -3.45645   12.02398
       H    11.08011   -2.00543   13.69603
       O    10.13177   -2.22092   13.85342
      H1     9.73217   -1.35326   14.05418
       H     7.41549    5.51510    9.42606
       O     8.02319    5.35087   10.14925
      H1     8.44434    6.20886   10.31536

