180
frame 7 | Written by MDAnalysis XYZWriter (release 2.4.3)
       H    -3.64403    4.50697    5.87752
       O    -3.60986    4.50768    4.89381
      H1    -4.51259    4.79290    4.64487
       H    -0.24946    0.35215    6.28193
       O     0.00597    0.27475    5.32188
      H1    -0.63816   -0.32700    4.95529
       H    -2.30080   -3.71256   -0.03393
       O    -2.63850   -4.48666    0.46414
      H1    -3.47625   -4.10460    0.88615
       H    -7.06021    3.93589   10.74932
       O    -6.83297    3.02449   10.78708
      H1    -7.70328    2.65025   11.07553
       H    -3.10833   -5.40515    4.83944
       O    -3.98653   -4.95053    4.77384
      H1    -4.43111   -5.20696    5.61664
       H    -3.70692   -1.16487    9.47943
       O    -3.16481   -1.92300    9.21898
      H1    -3.49323   -2.03252    8.32015
       H   -10.71981   -2.95836    0.15885
       O   -10.13872   -2.29971   -0.24231
      H1    -9.29673   -2.72529   -0.07312
       H   -10.92426   -2.13301    8.45869
       O   -10.52052   -2.45891    7.59564
      H1   -10.08644   -3.28810    7.73898
       H    -3.19860   -0.15353   -1.81629
       O    -3.20149   -0.55031   -0.94970
      H1    -3.88916    0.00342   -0.52539
       H    -6.14568   -0.79159   10.18078
       O    -6.55336   -1.63335   10.40234
      H1    -7.42498   -1.22631   10.67659
       H   -10.28877   -0.76728   10.70202
       O   -10.62006   -0.65008    9.82945
      H1   -11.41868   -0.15543   10.05924
       H     0.09045    0.60469    8.19734
       O    -0.78443    0.40241    7.82621
      H1    -1.12332    0.13364    8.68923
       H   -12.95559   -3.00733    1.30116
       O   -12.22585   -3.65170    1.12760
      H1   -12.17381   -4.14507    2.04092
       H    -3.83423    2.57344   11.29530
       O    -4.09990    2.81561   10.42099
      H1    -5.02789    3.05648   10.49079
       H   -11.47909    2.46624   10.70235
       O   -11.05436    3.01022   10.05983
      H1   -11.05346    2.47055    9.19706
       H    -9.61508    2.80827    7.57063
       O    -8.85948    2.92860    8.13062
      H1    -8.75065    2.08046    8.57747
       H    -6.59204   -1.45472    3.31482
       O    -5.83464   -1.49846    2.68338
      H1    -6.26536   -1.70198    1.88707
       H    -6.78625    3.02040    7.71662
       O    -5.92680    2.88590    7.33498
      H1    -5.31216    3.48609    7.77089
       H    -5.50196   -7.51426    7.13652
       O    -6.20258   -8.16333    7.04293
      H1    -6.82926   -7.86897    7.68931
       H   -11.39765    0.74084    7.48639
       O   -11.42857    1.69921    7.73288
      H1   -12.36241    1.89097    7.40386
       H   -10.69480   -6.15258    7.45999
       O   -11.29616   -6.74292    7.89745
      H1   -12.15355   -6.43301    7.52452
       H    -6.07104   -6.15913    0.09849
       O    -6.69178   -6.86126    0.47747
      H1    -7.09326   -6.21954    1.13096
       H   -11.13418   -1.81127    3.83249
       O   -10.23767   -2.14337    3.87686
      H1   -10.37355   -2.94926    3.37761
       H   -11.29917    1.25641    0.35974
       O   -11.57888    0.43043    0.79467
      H1   -10.70831    0.06421    0.92823
       H   -10.24353    5.48100    4.01717
       O    -9.41001    5.03520    3.98446
      H1    -9.37732    4.68618    3.09366
       H    -9.00292    1.52771    4.61146
       O    -9.87799    1.07330    4.63668
      H1    -9.73633    0.41256    5.27796
       H    -9.55944   -0.50352    2.91260
       O    -9.22914   -0.26972    1.99587
      H1    -8.94517   -1.12987    1.59705
       H    -4.92300   -3.02561    2.66575
       O    -4.58192   -3.85799    2.34569
      H1    -4.41364   -4.40890    3.15624
       H    -7.06688   -3.36914    0.92382
       O    -7.45516   -2.58407    0.51658
      H1    -6.78460   -2.49379   -0.18874
       H   -12.49562   -0.57837    5.23072
       O   -12.46868   -0.95926    6.11336
      H1   -11.67270   -1.38524    6.40101
       H    -2.69554   -0.58425    3.91939
       O    -2.02134   -1.18275    4.21957
      H1    -2.16380   -1.96591    3.66606
       H    -1.76428    1.99912    7.86391
       O    -1.98938    2.92922    8.12113
      H1    -1.42927    3.47457    7.52531
       H    -4.65353   -0.82226    6.33018
       O    -5.58032   -0.50901    6.23916
      H1    -5.61199    0.23036    5.64411
       H    -8.46583    0.71701   10.03039
       O    -7.97362    0.75597    9.16419
      H1    -7.09471    1.08114    9.43921
       H   -11.51078    1.38117    2.22866
       O   -11.42900    2.24578    2.63701
      H1   -10.85786    2.09567    3.38548
       H    -6.47124   -4.41719    2.64661
       O    -7.33910   -4.64610    2.28595
      H1    -7.91038   -4.58941    3.08245
       H    -9.24184   -2.95862   11.03339
       O    -9.38338   -3.88594   10.80203
      H1    -8.50291   -4.26564   10.87450
       H    -0.79469   -3.78201    2.70574
       O    -1.77835   -3.76734    2.83029
      H1    -2.06184   -3.87842    1.88877
       H    -6.88473    2.01619   -2.17121
       O    -7.52350    1.44839   -1.67625
      H1    -7.21065    1.62594   -0.78373
       H    -9.31073    4.07109    0.47072
       O    -9.71845    4.25891    1.37564
      H1   -10.19355    3.47456    1.72249
       H    -3.06297    2.16917    3.86782
       O    -3.36948    1.21540    3.74217
      H1    -4.29525    1.29115    4.18624
       H    -4.54784   -1.71873   -1.18295
       O    -5.22608   -2.37689   -1.30913
      H1    -4.82614   -3.20390   -1.03150
       H   -13.26286   -4.32891    6.12956
       O   -12.88855   -5.11313    5.72989
      H1   -13.64835   -5.64752    5.42779
       H    -8.68564   -6.10053    8.44862
       O    -8.52118   -6.73345    9.18313
      H1    -9.36198   -6.66497    9.60378
       H   -13.34657   -0.98335    3.08297
       O   -12.38917   -0.73382    3.24830
      H1   -12.25662   -0.45356    2.30310
       H    -8.88198   -4.92772    5.99057
       O    -9.08259   -4.76839    6.93244
      H1    -8.26869   -4.30112    7.22072
       H   -12.14714   -5.29156    3.20828
       O   -11.61812   -4.58547    3.63028
      H1   -12.05557   -4.55959    4.49032
       H    -6.67742   -2.68140    7.16433
       O    -6.83127   -3.28373    7.86472
      H1    -6.81242   -2.70445    8.66866
       H   -10.31678    4.30069    5.78728
       O   -10.82487    4.55080    6.54595
      H1   -10.47490    5.39844    6.80122
       H    -4.13713   -5.53248    7.99587
       O    -4.88940   -5.60025    7.35121
      H1    -5.51359   -4.88101    7.56462
       H    -8.32949   -1.70517    4.85195
       O    -7.39963   -1.90416    4.69135
      H1    -6.92970   -1.36687    5.38240
       H    -3.40992   -3.41315    5.91801
       O    -3.24026   -2.55357    6.36386
      H1    -2.72536   -2.14798    5.59689
       H    -6.59819    1.26213    1.27092
       O    -7.45365    1.62915    1.08102
      H1    -8.04027    1.02185    1.54491
       H   -10.05660   -5.36668    4.24662
       O    -9.07629   -5.44233    4.28637
      H1    -8.94194   -6.16909    3.67687
       H    -3.38234   -4.84936   10.05762
       O    -2.90642   -4.79185    9.21269
      H1    -3.12189   -3.83424    9.16010
       H    -5.25397   -0.02143    1.79958
       O    -4.94582    0.58316    1.09345
      H1    -4.10580    0.80744    1.48566
       H    -8.71161   -0.19714    7.38278
       O    -8.99892   -0.54267    6.53352
      H1    -9.28472   -1.43900    6.70482
       H    -4.59051    1.25882    9.41228
       O    -4.89897    0.34107    9.24449
      H1    -5.14195    0.43514    8.31164
       H    -6.76735    3.56469    2.18569
       O    -6.30795    3.96406    2.96386
      H1    -5.35926    3.98632    2.59242
       H    -6.14781    2.35029    5.49610
       O    -6.07414    1.95056    4.65075
      H1    -6.26950    2.70440    3.98129

