180
frame 4 | Written by MDAnalysis XYZWriter (release 2.4.3)
       H     8.65078    9.60754    1.71796
       O     8.79943    9.27817    2.65311
      H1     8.80914   10.11621    3.12074
       H     4.60705   11.10538   15.02188
       O     5.42080   11.37381   14.48342
      H1     5.91043   11.96084   15.05825
       H    10.98890    4.50944    9.63292
       O    11.49237    4.11526    8.85467
      H1    11.74870    4.97916    8.56732
       H     6.75510    3.28421   11.95323
       O     6.46176    2.79010   11.14568
      H1     5.83528    2.19237   11.62633
       H    11.40608   13.46661   11.99436
       O    10.74357   13.56842   11.29146
      H1     9.93145   13.61713   11.79975
       H    10.01362   10.05706   10.77252
       O     9.48964    9.59007   11.46302
      H1     8.65595    9.50232   10.99588
       H     8.44501    2.81935   10.43287
       O     9.31980    2.54525   10.70171
      H1     9.85231    2.31409    9.90411
       H     9.01561    8.37415    7.19503
       O     9.88064    7.87280    7.18854
      H1     9.85340    7.40777    8.04573
       H     2.35096   11.09093   14.13008
       O     2.34156   11.13076   13.18069
      H1     2.33792   10.20131   12.90548
       H     4.70856    4.97668   10.51408
       O     5.08795    5.12207    9.65288
      H1     4.89133    4.35220    9.15414
       H     3.88579   11.92723   12.60599
       O     4.37039   12.38992   11.91472
      H1     4.18152   11.74436   11.22272
       H     3.94085    8.57409   10.02380
       O     3.77365    8.97773   10.95261
      H1     3.90653    8.11338   11.44173
       H    10.55539    7.33366   13.40529
       O     9.70110    7.75093   13.69998
      H1     9.62092    8.31943   12.96624
       H     4.75613    2.34223    7.40857
       O     4.72142    3.27442    7.72087
      H1     3.84809    3.32935    8.12399
       H     5.38350    6.84087   12.55227
       O     4.42838    6.81297   12.67525
      H1     4.20634    6.05391   12.09779
       H     2.03173    5.91610   11.76725
       O     2.55650    5.16931   11.33145
      H1     2.34879    4.39083   11.89160
       H     9.47378   10.48456   12.99678
       O     9.00820   10.90816   13.75437
      H1     8.90496   11.83436   13.46816
       H    13.36620   10.05310   11.99809
       O    12.52402    9.65241   11.66129
      H1    12.28500   10.31869   11.01293
       H     7.18716    7.90144   12.55500
       O     7.53085    7.00075   12.45351
      H1     8.30172    7.13887   12.99989
       H    13.05537    6.46363    6.40453
       O    12.55505    6.26313    7.22951
      H1    12.22568    7.13514    7.33025
       H     8.55429   13.48007    4.51070
       O     9.10528   13.79023    3.78744
      H1     9.62976   14.48418    4.26458
       H    13.13108    7.36862   13.46094
       O    12.42911    7.20201   12.82934
      H1    12.43201    7.98534   12.25976
       H     0.04164    9.93339    7.34658
       O     0.08144   10.91669    7.08010
      H1     1.02691   11.04869    7.15182
       H     7.60668   13.81458   13.41867
       O     8.57282   13.68970   13.68050
      H1     8.80276   14.66296   13.66462
       H     5.98266   11.79716    9.52196
       O     5.26182   11.66480    8.96807
      H1     5.64592   11.05346    8.29794
       H     9.90385    5.44823    6.58946
       O     9.69681    4.48701    6.88697
      H1    10.32549    4.24139    7.56793
       H     9.48700   11.83998    4.38220
       O     9.63729   11.02082    4.87054
      H1    10.47036   10.74441    4.45822
       H     7.42789    7.65201    3.53717
       O     7.01878    6.78201    3.37021
      H1     6.93524    6.78262    2.46132
       H     3.51808   11.73252    7.88225
       O     2.81212   11.50682    7.20336
      H1     2.70304   12.39194    6.85314
       H     8.80719   13.96057    8.39526
       O     8.85087   14.86531    8.18224
      H1     7.96055   15.14713    7.97242
       H     5.52713   13.75099    6.20627
       O     4.63197   14.11991    6.35076
      H1     4.42213   14.39125    5.41558
       H     9.16911   11.67608    9.23844
       O     8.51619   11.97542    8.53006
      H1     7.81062   12.41587    9.12977
       H     2.76614    5.48555    3.81415
       O     2.34580    5.80144    4.60966
      H1     2.47579    6.74240    4.51489
       H     8.53058    8.61068   15.21341
       O     7.57907    8.64719   15.51004
      H1     7.47057    9.51044   15.04140
       H     2.33034   12.56556   11.36008
       O     1.89115   12.96441   10.62956
      H1     1.02101   12.60545   10.76949
       H     7.72097   12.68800    6.52909
       O     7.26922   13.33343    5.92770
      H1     6.77283   12.68178    5.35083
       H     4.19039   10.59724    5.99727
       O     5.05202   10.13024    6.09889
      H1     4.93480    9.16062    6.18089
       H     3.46135    9.94589    3.16598
       O     3.59034    9.46537    2.31427
      H1     2.67077    9.53326    2.08192
       H     1.07815    8.39077    7.40516
       O     0.26042    8.54926    7.88639
      H1    -0.31927    7.91278    7.38632
       H     5.12341    7.10395    7.67429
       O     4.39962    7.16308    8.31299
      H1     4.59345    6.41945    8.94479
       H     6.95034   12.91690   11.68925
       O     6.95243   13.01894   10.68060
      H1     6.07573   13.50903   10.68647
       H    10.93132    8.39546    5.69473
       O    11.54452    8.63385    4.98768
      H1    11.49078    7.91039    4.36227
       H     4.17496   14.30170    8.34142
       O     4.20007   14.70456    9.25437
      H1     3.43701   14.22272    9.60999
       H    10.77124    6.85318   10.36764
       O    10.29017    6.57365    9.59953
      H1     9.37417    6.52350    9.95514
       H    13.86273   11.54316    8.28515
       O    12.93428   11.66825    7.95611
      H1    12.88386   10.90090    7.41636
       H     7.06496    9.21987    8.71775
       O     7.27237    9.17947    9.63945
      H1     7.55988    8.25018    9.77306
       H     7.06824    4.52708   14.44365
       O     6.83746    4.48420   13.47169
      H1     7.16796    5.36663   13.13905
       H     3.26741    7.90969    6.76515
       O     2.39970    8.21511    6.36688
      H1     2.68930    8.88666    5.75257
       H     6.03347    6.83196    4.80616
       O     5.62775    6.86305    5.70414
      H1     5.38356    5.95050    5.56031
       H     7.93743   14.64465   11.08046
       O     8.22384   15.54160   10.75941
      H1     8.70401   15.36704    9.94584
       H     5.40845    9.29327   11.90960
       O     6.00628    9.37609   12.66242
      H1     5.61943   10.13170   13.16239
       H     5.57328    3.80846    6.15179
       O     5.58149    4.03580    5.21783
      H1     6.50193    4.31918    5.06853
       H     7.97477    5.27115    8.22753
       O     7.69972    5.92387    8.85703
      H1     7.01923    5.56025    9.42994
       H     5.24560   13.95995   12.63186
       O     6.12850   14.50199   12.75996
      H1     5.81691   15.35896   13.13647
       H     1.50683   10.61288    3.77920
       O     2.23134   10.59121    4.43258
      H1     2.42019   11.54457    4.57807
       H     8.84185    4.55453    5.26504
       O     8.25511    4.33073    4.51528
      H1     8.21948    5.15130    4.10284
       H     8.46974   10.20906    6.03448
       O     8.00594    9.84623    6.81832
      H1     8.31787   10.54590    7.41254
       H     1.83249    8.95172   10.43096
       O     0.86944    9.21143   10.50511
      H1     0.67752    9.16795    9.60790
       H    10.79821   12.15397   10.36427
       O    10.87187   11.35260    9.86559
      H1    11.40573   11.63637    9.06483
       H     5.99060   11.50664    3.16990
       O     6.53635   11.44167    3.98225
      H1     6.01830   10.84492    4.59180

