180
frame 0 | Written by MDAnalysis XYZWriter (release 2.4.3)
       H    11.62364    2.78231    8.97136
       O    11.60015    3.26996    8.10718
      H1    12.27705    2.84940    7.55364
       H     9.91345    3.05772   20.00470
       O     9.41113    3.45708   19.27350
      H1    10.13109    3.75419   18.66670
       H    15.25770   10.04166   18.00046
       O    15.56407   10.50379   18.84027
      H1    16.43673   10.81736   18.46969
       H    14.24443    1.73227   13.02263
       O    14.66819    0.89504   13.34584
      H1    15.47938    1.14342   13.84292
       H    15.74343    3.03551    8.84827
       O    16.36888    2.76927    9.59758
      H1    16.55555    1.80369    9.45045
       H    10.54473   10.51309   11.81305
       O     9.73330   10.35289   12.33996
      H1    10.02467    9.49345   12.71913
       H    12.94611    2.40289   10.60675
       O    12.01614    2.11985   10.49804
      H1    11.98609    1.21323   10.88581
       H    14.80058    6.74736   11.78603
       O    15.00750    6.28987   10.91197
      H1    14.65584    5.38051   11.20436
       H    12.11617    8.69780    7.76960
       O    11.54322    8.34338    8.44627
      H1    11.11991    7.57378    8.09452
       H    13.48194    2.28387   16.90866
       O    12.87469    2.49025   16.16582
      H1    12.39580    3.23767   16.57725
       H    11.65852    8.87606   13.95230
       O    10.88439    8.36208   13.89562
      H1    11.15861    7.42258   14.00763
       H    14.29035    4.23470    6.77103
       O    14.28964    3.59663    7.49897
      H1    13.58384    4.03719    8.03339
       H    17.59528    6.07476   12.87681
       O    17.74293    6.30855   13.78609
      H1    17.55473    5.45388   14.20740
       H    18.32349   12.39788   11.70753
       O    18.91844   12.18538   12.48907
      H1    19.24149   11.27537   12.28386
       H    15.47044    3.36490   18.05098
       O    15.81376    4.27961   18.05066
      H1    15.01961    4.69584   17.52978
       H    14.69521    8.11251   18.09547
       O    14.97451    8.23543   17.13081
      H1    14.31306    8.84285   16.72234
       H    15.83288    8.04610   15.48047
       O    15.97290    8.49298   14.54690
      H1    16.83168    8.04120   14.35545
       H    14.27000   11.81319   12.11789
       O    14.24905   12.44332   11.32183
      H1    15.13984   12.52834   10.93430
       H     9.13263   11.26403   13.68309
       O     8.78258   11.82120   14.42465
      H1     9.13029   12.67338   14.08659
       H    14.21103    6.67855   16.75098
       O    13.83910    5.80249   16.64022
      H1    13.22203    5.70038   17.39446
       H    13.30857    8.78771    9.82762
       O    13.02098    8.87002   10.73247
      H1    12.17715    8.29802   10.72333
       H    17.70707    5.51013   18.41079
       O    18.51996    5.15384   18.13967
      H1    18.38733    4.25429   18.36564
       H     7.32529    8.41903   13.35752
       O     7.92422    7.67887   13.15672
      H1     8.51266    7.78485   13.88524
       H     9.30108    3.69639   11.14074
       O    10.12810    4.11327   10.85422
      H1    10.80856    3.41927   10.78875
       H    12.35097    6.64579    8.63571
       O    13.14337    6.06177    8.65993
      H1    13.68728    6.44483    9.42686
       H    14.62723    7.76795   13.61957
       O    13.90534    7.30945   13.19097
      H1    13.48769    8.05571   12.71130
       H    14.59397    3.64250   12.54784
       O    14.48534    3.53678   11.53103
      H1    15.39555    3.32929   11.30073
       H    10.05717   11.33463   15.46578
       O    10.81783   10.95369   16.07211
      H1    10.19955   10.29027   16.49326
       H    11.54556    0.31697   14.51936
       O    12.38079   -0.08100   14.21399
      H1    13.08350    0.52056   14.49297
       H     9.36501    5.67857    7.70750
       O    10.19799    5.51061    7.29102
      H1    10.61318    4.90874    7.88610
       H    13.16553    8.12919    5.64391
       O    13.58773    8.71370    6.27920
      H1    14.05420    8.09408    6.80490
       H    14.19222   14.36008   11.28595
       O    14.59838   15.19540   11.59468
      H1    14.43382   15.03898   12.56875
       H    13.78963   11.67440   15.87059
       O    13.49970   10.79702   16.27632
      H1    12.53602   10.72355   16.32863
       H    16.97783    2.80901   14.67278
       O    17.01239    1.83744   14.68565
      H1    17.59443    1.77288   13.95817
       H    18.90432    9.34712   17.27207
       O    18.81983   10.22176   17.02330
      H1    19.72570   10.31924   16.64103
       H    10.21026   11.94449    9.65891
       O     9.25960   12.04521    9.37075
      H1     8.84290   11.87764   10.25181
       H    10.50130   14.04561   17.75598
       O    11.19052   13.54404   17.30744
      H1    10.75487   12.77993   16.95020
       H    16.88380   13.63662   10.18432
       O    16.81164   12.66157   10.16583
      H1    16.81942   12.48975    9.24139
       H     7.87033   10.04683   15.29788
       O     8.08051    9.14881   15.72784
      H1     7.48201    8.44557   15.46112
       H    16.31433   10.57627   13.86924
       O    16.38371   11.49026   13.58652
      H1    17.34752   11.62587   13.59995
       H     8.86629    4.60739   15.00414
       O     9.49445    5.24714   15.23126
      H1     8.94471    6.02941   15.08291
       H    15.27574    6.70955    6.54410
       O    15.63570    7.23589    7.33680
      H1    15.19214    6.78504    8.03851
       H    11.29417    5.34065   18.29553
       O    11.35984    4.67514   17.53694
      H1    10.73272    5.06146   16.82198
       H    13.97727    4.65446   14.37255
       O    14.56216    3.85868   14.26837
      H1    13.90540    3.10905   14.53624
       H    10.66318    6.37545   11.11711
       O    10.82188    7.33097   11.16233
      H1    10.01815    7.67553   10.75182
       H    12.08282   10.91613   13.08050
       O    12.77384   10.41176   13.54731
      H1    12.60890   10.55719   14.45688
       H    14.71748   11.25721    7.72689
       O    13.89090   10.90640    8.16460
      H1    13.63123   10.27744    7.49562
       H    17.26923    4.39109   10.09773
       O    17.46242    5.35079   10.22228
      H1    16.66738    5.78134   10.60665
       H     7.92412    6.74498   10.54735
       O     7.89858    7.69005   10.29653
      H1     7.79175    8.17271   11.10646
       H     6.35764    4.99251   15.19465
       O     6.14172    5.53713   14.39149
      H1     6.97234    5.54131   13.84435
       H     7.46607    5.74696    8.57151
       O     7.92088    5.21847    9.24471
      H1     7.33980    4.47196    9.27668
       H    15.03926   13.24381   15.93194
       O    14.57454   12.88390   15.17725
      H1    15.12502   12.39232   14.57800
       H    13.26816   15.52135   14.30666
       O    14.21232   15.34610   14.46382
      H1    14.19162   14.37640   14.58719
       H    10.47100   10.73876   19.02107
       O    10.91465   11.17614   19.80870
      H1    11.60214   11.72119   19.41166
       H     9.39989    9.71974    6.62180
       O     8.84606    9.59490    7.46942
      H1     9.28871   10.27813    7.96583
       H    17.81303    6.15943    8.68116
       O    18.19108    6.29133    7.77555
      H1    17.42630    6.59919    7.37567
       H    12.32594   12.07887   10.97744
       O    11.64930   11.37333   10.73164
      H1    12.27292   10.59943   10.51900
       H     9.93335    8.63016   18.29802
       O     9.62991    9.53536   18.21631
      H1     8.74306    9.43718   17.82291
       H    15.93316    4.34830   15.34867
       O    16.83408    4.25677   15.64586
      H1    16.79943    4.29113   16.61932
       H    17.20557    9.65951   10.78007
       O    17.81315    9.04295   11.15557
      H1    18.45603    8.87842   10.47555

