180
frame 9 | Written by MDAnalysis XYZWriter (release 2.4.3)
       H    13.77662   10.04974   17.87898
       O    14.60243   10.52673   18.09892
      H1    15.31497    9.90643   17.75761
       H    17.99369   11.96455    3.61030
       O    18.02205   12.89381    3.95734
      H1    17.16039   13.03406    4.38122
       H    14.99900   12.19550    4.97697
       O    15.49330   13.04328    4.97386
      H1    14.91471   13.63756    4.43579
       H    10.35912   13.38084   11.63776
       O    10.52947   13.65645   10.68534
      H1     9.67185   14.03910   10.49451
       H    12.23987   13.72855   19.43055
       O    12.84579   14.08895   18.72648
      H1    12.87337   15.09152   18.97211
       H    16.44936   14.20627    1.48026
       O    16.85056   14.67761    2.25875
      H1    17.60251   14.07913    2.48148
       H     9.81722   18.69788   15.88706
       O     9.43240   17.81045   15.94998
      H1    10.32944   17.32248   15.92352
       H    11.80599   18.46266   13.95859
       O    12.11588   18.13946   13.07949
      H1    12.81139   17.50117   13.24557
       H    15.16861   10.72876   13.25694
       O    16.05624   10.62971   13.64653
      H1    16.26514    9.71819   13.24237
       H    19.18860   16.77290   11.44111
       O    18.24591   16.65983   11.58007
      H1    18.05083   16.00430   10.91760
       H    16.97448    7.76462   13.09655
       O    17.04147    8.34948   12.29165
      H1    17.97553    8.69771   12.21599
       H    12.21955   18.08052    5.00470
       O    12.95407   18.60988    5.35317
      H1    12.42916   19.13307    6.01292
       H    15.41742   13.86806   11.20989
       O    14.48416   14.04522   10.86510
      H1    14.51059   13.60792   10.00179
       H    17.41866   15.76567    8.64458
       O    18.29137   15.34183    8.93263
      H1    18.95715   15.92295    8.43936
       H    13.40490   11.53069   13.54449
       O    13.42640   10.77800   12.91201
      H1    13.39421   11.36648   12.10841
       H    12.87710   16.37104   11.20590
       O    12.14111   16.37130   10.63640
      H1    11.85492   15.44797   10.69346
       H    10.56979   16.64428   11.40477
       O     9.62405   16.80828   11.77647
      H1     9.77864   17.20938   12.64572
       H    11.50060   14.81629   15.12929
       O    11.41031   14.60531   14.14900
      H1    10.57626   14.97298   14.00535
       H    18.78393   13.96351   18.04450
       O    18.65449   13.73808   19.00913
      H1    18.45094   12.79836   19.00345
       H    18.07238   16.45171   13.39841
       O    17.38808   16.29660   14.12054
      H1    17.81049   15.55342   14.54749
       H    17.57191   16.64310   18.12167
       O    18.39324   17.10985   17.82124
      H1    18.24265   17.95760   18.32404
       H    13.52269    7.33539   13.77627
       O    13.97319    7.66263   12.97827
      H1    13.77174    8.61439   13.03910
       H    13.16697   17.33662   18.52779
       O    13.45812   16.69248   19.18670
      H1    14.32500   16.50149   18.82049
       H    18.37608   13.06998   15.91020
       O    18.95125   13.77107   16.09566
      H1    19.13801   14.05673   15.16040
       H    17.28593    8.46186   17.40242
       O    16.92223    9.34302   17.41011
      H1    17.25606    9.60144   16.58887
       H    14.24397   10.02816    5.06820
       O    15.09704   10.38287    5.53413
      H1    15.73162    9.62343    5.42287
       H    17.37852   19.82533   11.31857
       O    17.17046   19.14534   10.65785
      H1    17.37119   18.30498   11.05369
       H    14.54659   15.60140   11.52659
       O    14.30907   16.32989   12.17480
      H1    15.08011   16.83832   12.31509
       H    11.55870   11.90114   16.35542
       O    10.98215   11.65747   17.04647
      H1    10.15587   11.66644   16.54567
       H    13.27945   18.32518    8.62052
       O    14.15646   18.67487    8.63436
      H1    14.67652   17.87699    8.37594
       H     9.63145   18.97386    9.73225
       O     8.83954   18.33844    9.72304
      H1     9.05271   17.87606   10.57932
       H    18.00150   17.57442    3.47426
       O    17.95599   17.50098    4.46303
      H1    16.98189   17.58264    4.59302
       H    14.52002   13.43336   19.38401
       O    15.38190   13.03094   19.55894
      H1    15.22542   12.05594   19.31950
       H    17.23687   14.73638   12.41603
       O    16.91300   13.88563   12.15318
      H1    17.48641   13.58724   11.39528
       H    16.55360   11.48340   15.03801
       O    17.01045   11.92532   15.73684
      H1    16.26141   12.47337   16.03819
       H    12.32711   17.66640   16.56428
       O    11.96842   16.86889   16.09495
      H1    12.79733   16.54741   15.69673
       H    14.80223   18.01505    5.31246
       O    15.39987   17.23935    5.21687
      H1    14.96972   16.66638    4.63239
       H    12.79605   19.21782   18.29622
       O    13.08670   18.88480   17.46583
      H1    13.94583   19.21829   17.27316
       H    16.27028   18.66782   15.41160
       O    15.30259   18.68020   15.53382
      H1    15.00507   19.27436   14.83703
       H    11.77376   16.38628    8.86771
       O    11.67961   16.83265    8.02051
      H1    10.85110   17.38766    8.10849
       H    12.34509   13.23449   14.57701
       O    12.91911   12.59067   15.16386
      H1    13.63597   13.14273   15.46325
       H    14.28780   16.10218    6.14614
       O    13.71537   15.52347    6.66411
      H1    13.11256   16.21137    7.02082
       H    13.75658   11.14391    7.78694
       O    13.55646   10.30492    8.30684
      H1    13.92649    9.67418    7.65358
       H    10.74622   14.85111    6.30337
       O    11.23984   14.72658    5.44632
      H1    12.14118   14.95740    5.71273
       H    18.29805   11.42917   13.86389
       O    18.95894   11.97083   13.45230
      H1    18.41370   12.72878   13.18535
       H    19.15885   13.63233    5.25029
       O    19.48714   13.84073    6.16546
      H1    19.35045   14.79266    6.20240
       H    16.53080   14.90281   18.88842
       O    16.12442   15.60553   18.31179
      H1    15.89763   15.07663   17.49713
       H    13.65522   15.19269    3.07191
       O    14.46722   15.23821    3.57910
      H1    15.02958   14.88126    2.83810
       H    15.14421   12.55840    7.88316
       O    14.35882   13.08564    8.11603
      H1    14.12817   13.66186    7.38037
       H    14.25277   13.98163   17.13215
       O    14.96669   14.06452   16.37508
      H1    14.70112   14.85255   15.86439
       H    14.70072   15.85273   13.88819
       O    14.45381   16.06384   14.84647
      H1    14.90308   16.89273   15.04072
       H    17.89070    7.41152    7.91798
       O    18.48944    7.82021    7.28170
      H1    19.25294    7.21937    7.30389
       H    18.51513   13.55225    9.46880
       O    18.76169   12.95551   10.18694
      H1    18.50640   12.05683    9.86753
       H    17.16087   17.93951    7.49744
       O    16.46324   17.35365    7.74419
      H1    16.11906   17.15790    6.87386
       H    17.52462    6.89298   10.06701
       O    16.87002    6.43242    9.53384
      H1    16.01808    6.69763    9.99534
       H    18.15918   17.61759   14.84410
       O    18.27642   18.36714   15.47994
      H1    18.26978   17.83789   16.36793
       H    19.57355    9.91888   19.92692
       O    18.76982   10.42075   19.60808
      H1    18.38098    9.90040   18.85662
       H    11.21149   12.10894    9.60335
       O    11.00899   11.28619    9.13111
      H1    11.95348   11.13189    8.85956
       H    17.37664   16.63334    1.62184
       O    18.03717   17.27606    1.75499
      H1    17.61958   18.07531    1.28843
       H    17.78776    9.64944    4.19430
       O    18.37338   10.33713    3.69325
      H1    19.27397    9.99801    3.74926

