180
frame 1 | Written by MDAnalysis XYZWriter (release 2.4.3)
       H    -2.19839    4.30313    4.29800
       O    -2.31666    5.22365    3.94601
      H1    -2.93823    5.63556    4.47999
       H     8.43510   10.53262    2.63771
       O     8.08790   10.76661    3.53023
      H1     8.91257   11.19749    3.81896
       H     0.34395    5.50941    5.92371
       O     0.79122    4.64263    5.99891
      H1     1.27173    4.60096    5.17954
       H     5.90031    3.39073   -4.60907
       O     6.20236    4.31518   -4.59624
      H1     5.64652    4.66802   -3.86373
       H     6.08855    8.66349   -4.52880
       O     5.56493    7.86300   -4.80709
      H1     4.64049    8.15024   -4.55155
       H    -1.99841    3.72848   -3.85559
       O    -1.04761    3.48683   -3.85291
      H1    -0.58160    4.29652   -3.58422
       H    -0.77167   12.04806   -1.76225
       O    -0.47804   11.19150   -1.41699
      H1     0.18735   10.81417   -2.02393
       H    -0.71227   11.14233    5.61295
       O    -0.54952   10.26989    5.23091
      H1    -0.80905   10.40157    4.29625
       H     6.94117   13.74165    1.37404
       O     7.11914   12.81142    1.37389
      H1     6.72859   12.47878    2.23350
       H     3.71427    2.54284    6.97678
       O     3.36791    3.37919    7.28018
      H1     2.49652    3.35132    6.85725
       H    -0.74860    5.87314   -2.30509
       O    -0.00937    5.74568   -2.91269
      H1     0.76038    5.68886   -2.26816
       H     4.12862   14.49045    1.76663
       O     3.71169   13.89247    2.34412
      H1     4.29129   13.93581    3.11144
       H     0.98115   11.87622    2.36730
       O     1.32249   11.02035    2.74764
      H1     0.84919   10.47301    2.08924
       H    -4.10588    8.60859    0.79632
       O    -4.59944    9.42156    1.21545
      H1    -4.30587    9.42083    2.14196
       H     4.03479   11.88313   -1.40288
       O     3.61020   12.15942   -2.23568
      H1     3.08197   11.39682   -2.52826
       H     6.39506    6.21832    1.85414
       O     6.26365    6.02147    2.76159
      H1     5.61898    5.34715    2.66271
       H     4.76226   11.40008    0.66639
       O     5.25062   11.76717   -0.11625
      H1     5.93720   12.30503    0.32029
       H     4.34900    9.75216    2.32672
       O     3.87238   10.43899    1.88911
      H1     2.99537   10.33125    2.38186
       H    -2.54925    9.98439   -0.26246
       O    -2.11976    9.12630   -0.52953
      H1    -1.27109    9.45185   -0.83795
       H     2.42168   13.31754   -1.50750
       O     1.77383   13.98150   -1.24902
      H1     1.58725   13.70199   -0.34517
       H    -1.27878    6.32285    0.30460
       O    -1.63975    6.22870   -0.58602
      H1    -1.87108    7.16454   -0.71592
       H     6.81285    1.35819   -0.96346
       O     5.96255    1.89224   -0.92854
      H1     5.68414    1.72390   -1.80332
       H     5.45600    6.77222   -3.11221
       O     4.99807    6.33306   -2.38452
      H1     5.57276    6.54692   -1.63643
       H     6.83332    7.39792   -0.07377
       O     6.46609    6.50347   -0.08768
      H1     7.25019    5.95478   -0.22858
       H     7.74012    8.73139    3.92780
       O     8.14016    7.89624    4.03853
      H1     7.55368    7.37446    3.48141
       H     3.05859   12.36853    7.88780
       O     2.43192   11.63722    7.61778
      H1     2.37759   11.52964    6.68792
       H    -1.29588    9.28858    1.31765
       O    -0.80957    9.60669    2.08815
      H1    -0.62491    8.75099    2.49922
       H     3.68000    3.83811    3.11297
       O     4.55933    3.63559    2.76950
      H1     4.39310    3.13850    1.99133
       H    -1.86835    3.14782    6.04473
       O    -1.36809    2.87000    5.28724
      H1    -0.56321    3.39979    5.51271
       H     1.90445    2.24435    3.63536
       O     1.63671    3.18136    3.40539
      H1     1.55534    3.06824    2.41499
       H     2.53994    7.35469    1.59889
       O     1.96354    6.59846    1.71475
      H1     2.21928    6.15983    2.56211
       H     0.22682    6.26239    2.00861
       O    -0.70957    6.48090    1.96209
      H1    -1.04873    6.03102    2.72843
       H     2.96559    4.76143   -0.75149
       O     2.17771    5.37572   -0.88186
      H1     2.17102    5.75657    0.02149
       H     4.51535    5.69489    5.10674
       O     3.88629    6.31566    4.64252
      H1     3.54395    6.88224    5.34764
       H     1.38643    3.78764   -0.02712
       O     1.46053    2.98280    0.44914
      H1     0.95274    2.37445   -0.03860
       H    -2.98139    3.53941   -1.24900
       O    -2.73966    3.76924   -0.30150
      H1    -2.23624    4.58704   -0.50356
       H     4.59473    9.69403    6.56157
       O     5.39458    9.97661    6.14329
      H1     5.99096    9.62377    6.81359
       H    -2.96398    9.42999   -3.69521
       O    -2.29450   10.10671   -3.53941
      H1    -2.07291    9.97080   -2.61408
       H     5.81024    9.20098    4.51340
       O     5.42727    8.95278    3.64850
      H1     5.11023    8.02727    3.72088
       H    -0.12924    7.43371    6.46797
       O    -0.90930    7.32242    7.04398
      H1    -1.53690    7.86718    6.58764
       H     6.32603    9.32088   -2.10603
       O     5.89830    9.12944   -1.23513
      H1     5.75305   10.01007   -0.89073
       H     5.37237    7.85140    8.32511
       O     4.50094    7.46557    8.10488
      H1     4.56755    6.45012    8.05319
       H     0.26819    6.57901   -4.52121
       O     0.58228    7.01445   -5.32803
      H1    -0.19717    7.43687   -5.68884
       H     8.81175    9.81359    0.03909
       O     8.18331   10.14903    0.71876
      H1     7.98255   11.06884    0.41921
       H     3.83433    8.70441   -0.61509
       O     2.99633    8.36690   -0.29714
      H1     3.13119    7.41596   -0.33470
       H    -2.79999   11.24836    1.39145
       O    -2.91027   11.45120    0.46604
      H1    -2.17424   12.12350    0.36248
       H    -2.72628    9.40889    7.30251
       O    -2.69766    9.07838    6.41044
      H1    -1.93590    9.58860    6.05761
       H     5.20751    4.57986   -1.47534
       O     4.45865    4.03724   -1.10299
      H1     4.93183    3.15755   -0.99668
       H     0.37761    7.88173   -2.40866
       O     0.67808    8.68761   -1.93930
      H1     1.43686    8.37216   -1.33167
       H     2.71051    7.63602    6.95011
       O     2.15902    7.57057    6.12414
      H1     2.22758    8.44438    5.78426
       H     7.87773    7.98240    6.05057
       O     7.07006    7.77636    6.52009
      H1     6.72221    7.26637    5.78182
       H     4.82798    4.41319    7.03211
       O     5.30592    5.10360    6.58212
      H1     6.22155    4.75814    6.65829
       H     3.49851   10.73391    5.24426
       O     2.61541   10.31499    5.27798
      H1     2.16486   10.82960    4.56575
       H     8.66715    5.55586    6.08444
       O     8.32395    4.82671    5.65594
      H1     8.16390    5.00163    4.71141
       H    -3.85504   10.79542    4.04399
       O    -3.48491    9.92799    3.90497
      H1    -3.46360    9.58975    4.80407
       H     0.61422   14.43120    1.62259
       O     1.04037   13.55548    1.53629
      H1     1.93125   13.68214    1.87301
       H     0.53287   11.02444   -4.39652
       O     1.04310   10.94401   -3.57520
      H1     1.16704    9.95134   -3.52174
       H     3.05324    8.89837   -5.98135
       O     2.87413    8.65309   -5.05966
      H1     2.22850    7.94706   -5.25957
       H     5.05318   11.37236    3.24976
       O     5.65212   12.03331    3.69566
      H1     6.45658   11.46922    3.82777
       H     2.97586    4.92947   -4.83469
       O     2.78413    4.33177   -5.59749
      H1     2.35236    4.87897   -6.29877

