180
frame 4 | Written by MDAnalysis XYZWriter (release 2.4.3)
       H    16.29141   -1.04432   12.89210
       O    16.09719   -1.66602   13.64086
      H1    15.58241   -1.05340   14.25362
       H    12.59431   -6.14337   11.05321
       O    11.64314   -6.24644   10.89426
      H1    11.39930   -5.32500   10.96114
       H    10.14734   -4.02027   16.46319
       O    10.71020   -4.40909   17.18014
      H1    10.36801   -5.28313   17.26685
       H     8.89121  -11.15212   11.57628
       O     8.84443  -10.92201   10.63940
      H1     9.26396  -10.05822   10.47552
       H     7.98045   -1.34651   11.40185
       O     7.37855   -0.99764   10.71032
      H1     6.79052   -1.73960   10.61544
       H     7.77295   -5.93050    6.05453
       O     7.92330   -6.18000    6.97708
      H1     8.43322   -6.98474    6.83334
       H    15.18863   -6.53415   11.58860
       O    14.54290   -6.62366   10.85626
      H1    15.01898   -6.31771   10.08007
       H     5.15617   -3.10117    9.03910
       O     5.59504   -3.37778    9.85435
      H1     4.97988   -4.00259   10.26010
       H    10.70506   -3.88242    6.87364
       O    11.63366   -4.24009    6.79878
      H1    11.82313   -4.13621    5.86748
       H    13.08190   -3.98216    7.82823
       O    14.10909   -3.99258    7.89788
      H1    14.36224   -3.36142    7.17577
       H    11.06470    3.09159   14.77950
       O    11.54857    2.37531   15.17881
      H1    12.32713    2.23892   14.68349
       H    13.56750    1.98895   13.51573
       O    13.41739    1.05779   13.32061
      H1    12.70201    1.03071   12.67301
       H     8.48266   -8.18039   13.55431
       O     9.01245   -7.49165   13.11674
      H1     9.46951   -7.97469   12.44016
       H    10.24092   -1.85151    3.44638
       O     9.85948   -1.95453    4.31586
      H1     8.89538   -1.76536    4.24082
       H    14.46319   -1.34002    8.86257
       O    15.07063   -1.55948    9.58830
      H1    15.69905   -2.16214    9.11110
       H    11.72321   -7.72806   14.83560
       O    10.84797   -7.58507   15.21220
      H1    10.21946   -7.46994   14.43746
       H    12.59688   -4.24865   13.84453
       O    11.88635   -3.66237   13.48576
      H1    12.44284   -3.21659   12.84398
       H     5.24893   -3.50163   16.20441
       O     5.97958   -3.66447   15.53227
      H1     5.50173   -3.71852   14.70835
       H    14.28045   -3.68762    5.24785
       O    14.52817   -2.79607    5.57128
      H1    15.45149   -2.67830    5.31108
       H    12.53618   -1.69615   14.44735
       O    12.95447   -1.42772   15.30537
      H1    13.25332   -0.52619   15.06250
       H    14.42905   -8.70838    9.19602
       O    15.03014   -9.34777    8.82415
      H1    14.47241   -9.83619    8.17694
       H     7.26595   -4.21678    9.44359
       O     8.20396   -4.45935    9.32678
      H1     8.28275   -5.13201    8.68429
       H    14.28159   -8.12288   15.02774
       O    13.87425   -8.31139   14.17596
      H1    13.34159   -9.12855   14.31416
       H     8.31129   -6.17532   12.24131
       O     7.60582   -5.56347   11.83860
      H1     7.88209   -5.45276   10.90056
       H    13.40203    0.37259    8.15735
       O    13.47919   -0.44378    7.65167
      H1    13.64155   -0.11734    6.78700
       H     7.28618    0.34551    6.38017
       O     7.39524    1.27846    6.57581
      H1     8.20844    1.39845    7.08062
       H    17.00915   -3.97905    9.07090
       O    17.43066   -3.11950    9.02324
      H1    18.04523   -3.28924    9.76735
       H    16.00685   -0.60790   10.82155
       O    16.37588   -0.08799   11.51077
      H1    17.15516    0.39521   11.17321
       H    10.95166   -9.37406   11.31191
       O    10.30279   -8.72240   10.96702
      H1    10.78359   -7.84644   10.91016
       H     8.66478   -7.13128   17.49694
       O     9.64255   -6.95524   17.63513
      H1    10.02885   -7.20068   16.76653
       H    15.33273   -5.05458    8.42275
       O    16.06253   -5.56368    8.83311
      H1    16.44850   -6.21195    8.26831
       H    10.17572    0.94887   14.37334
       O     9.75747    0.10928   14.40095
      H1     8.81139    0.34534   14.13393
       H     8.42554   -5.42724    4.02343
       O     9.23010   -5.16858    4.46003
      H1     9.65712   -5.97885    4.48911
       H     6.31181    2.09182   13.98078
       O     7.19556    1.99558   13.55144
      H1     6.88453    2.05970   12.63900
       H    12.55580   -7.09004    6.89687
       O    13.06287   -7.56683    6.26366
      H1    13.37281   -6.88570    5.63196
       H     9.72858    0.24526    8.36683
       O     9.25715    0.96118    8.88479
      H1     8.67963    0.47530    9.47547
       H    15.24347   -7.17508   13.46252
       O    15.92438   -6.51244   13.24417
      H1    15.50495   -5.70096   13.50241
       H    11.89297   -3.04446   17.50144
       O    12.10429   -2.11181   17.72006
      H1    12.49460   -1.71185   16.83406
       H     8.09576   -3.59318   12.27221
       O     8.60575   -2.81628   12.53211
      H1     8.69518   -2.88415   13.49899
       H     5.95608   -6.35687    7.08367
       O     5.05784   -6.69960    7.07292
      H1     4.92182   -6.72795    6.15938
       H     4.40475   -4.75607   12.35441
       O     4.83224   -5.29851   11.65647
      H1     5.74865   -5.35062   11.97592
       H     4.81387   -6.97473   13.13171
       O     4.32569   -7.32913   13.88796
      H1     4.56079   -8.28623   13.82012
       H    11.50200   -0.63656    7.31269
       O    10.56771   -0.80633    7.52978
      H1    10.35826   -1.74127    7.48832
       H    11.99964   -0.26112   11.36104
       O    11.72560    0.64333   11.35510
      H1    10.94246    0.63048   11.88447
       H     7.79482   -2.36779    6.01891
       O     7.23825   -1.78670    5.44019
      H1     6.57442   -2.34877    5.03456
       H     6.33011    0.42485   10.86683
       O     5.62273    1.04849   10.94536
      H1     5.06782    0.82175   11.72409
       H    10.79384    3.26486    7.29844
       O    10.81350    3.58818    8.18541
      H1    10.13741    3.04363    8.63952
       H    11.36428   -5.64427    7.67749
       O    11.29491   -6.52003    8.16509
      H1    11.32519   -6.18517    9.11938
       H     8.18171   -1.52900   17.34825
       O     7.42223   -2.16837   17.53075
      H1     7.28633   -2.66908   16.69666
       H     5.69956   -6.67073   15.07427
       O     5.86353   -6.32371   15.96068
      H1     6.06531   -5.33964   15.79129
       H     8.44085   -3.72769    7.64847
       O     8.95873   -3.35768    6.90448
      H1     8.82797   -3.92403    6.16333
       H    11.05878   -0.20278    4.77949
       O    11.54382    0.68139    4.67230
      H1    11.31446    0.91193    3.75048
       H    14.66526   -4.58261   15.30787
       O    14.46699   -4.27770   14.42533
      H1    15.02601   -3.51416   14.23298
       H    12.49443   -2.26368   10.50564
       O    12.82957   -1.85310   11.30701
      H1    13.83691   -1.87094   11.25380
       H    12.18900    2.61233    8.75654
       O    12.74297    1.90767    9.04349
      H1    12.40375    1.39175    9.79715
       H     9.78586   -0.00820   16.08633
       O     9.75887   -0.30304   17.01368
      H1    10.39761    0.34278   17.34412
       H     9.04982    3.63446   10.60132
       O     9.46736    2.85824   11.11885
      H1     9.73601    2.11901   10.52951
       H     9.81395   -4.03259    9.88768
       O    10.70105   -3.74087   10.19343
      H1    10.41947   -3.38593   11.00016
       H     9.99499   -3.52473   14.66041
       O     9.38225   -3.07409   15.25598
      H1     9.76637   -2.19126   15.43131
       H    11.28001   -8.81737    8.51159
       O    10.75434   -9.32341    7.86352
      H1    11.37843  -10.03438    7.69011

