180
frame 11 | Written by MDAnalysis XYZWriter (release 2.4.3)
       H    -2.56826   16.21193   -1.59301
       O    -2.70373   16.41366   -0.64834
      H1    -1.81888   16.67021   -0.28216
       H   -15.14557   15.09987    5.42582
       O   -14.31543   15.20119    5.90776
      H1   -13.94998   15.81759    5.27154
       H    -3.40646   14.67028    8.21472
       O    -3.77734   15.17133    7.49437
      H1    -2.96240   15.31785    6.97319
       H    -4.06282   16.00964   -4.81159
       O    -3.34042   15.34189   -4.92332
      H1    -3.45909   14.78647   -4.10246
       H    -4.91111   15.08869    3.77275
       O    -5.09120   15.79802    4.38862
      H1    -5.92188   16.21467    4.17868
       H    -5.51352   17.57290   -5.24170
       O    -5.60137   16.74211   -4.68875
      H1    -5.68560   16.05340   -5.36093
       H    -4.47091   13.70827    6.40360
       O    -4.63160   12.79858    6.06475
      H1    -5.39069   12.54873    6.59737
       H    -6.00118   17.32800    7.77307
       O    -5.87202   16.56974    8.42661
      H1    -5.18955   16.04741    7.90473
       H    -0.61658   18.29081   -0.35478
       O    -0.78425   17.80928    0.50622
      H1    -1.63038   18.21829    0.86225
       H   -10.23112   12.30101    2.89380
       O   -10.22700   13.03205    3.57571
      H1    -9.48881   13.64099    3.32862
       H    -7.14398   17.65271   -2.11325
       O    -6.63794   18.19471   -1.50471
      H1    -7.17609   18.99840   -1.37582
       H    -9.86758   16.33069    1.25132
       O    -8.94073   16.64331    1.26578
      H1    -8.40740   15.87715    0.91312
       H    -3.08008   10.72959    1.16245
       O    -3.38327   11.24025    1.88566
      H1    -3.00135   10.74600    2.63799
       H    -3.61226   14.40255    1.99582
       O    -4.48139   14.56119    1.51331
      H1    -5.16757   14.00003    1.86565
       H    -4.04436   18.71475    1.49751
       O    -3.11568   18.97060    1.44884
      H1    -3.25772   19.81235    0.95451
       H   -12.32620   19.50876    2.76507
       O   -12.21784   18.73219    2.20058
      H1   -11.78820   19.11622    1.42604
       H    -8.53480   16.08407   -3.02725
       O    -8.06066   16.88881   -3.42904
      H1    -7.20245   16.47294   -3.65293
       H    -8.36527   11.38821    1.08043
       O    -7.49697   11.26303    0.63019
      H1    -6.96186   10.71457    1.28366
       H   -11.30178   10.81418    1.82646
       O   -10.56494   11.34688    1.49978
      H1   -11.00439   11.86815    0.79467
       H    -3.13503   13.27275   -2.25537
       O    -2.69249   13.62117   -3.07146
      H1    -1.91475   14.13649   -2.63174
       H    -3.74325   12.37013   -0.23610
       O    -4.12116   13.10179   -0.68567
      H1    -4.05632   13.81572   -0.06992
       H    -1.73807   14.22149    4.92250
       O    -1.52942   14.68789    5.78583
      H1    -0.61598   14.47655    6.01469
       H   -11.25086   17.74892    7.27259
       O   -10.37574   17.79852    6.87677
      H1    -9.88093   17.73779    7.70925
       H   -13.52713   18.22584    1.15433
       O   -14.17545   17.66753    0.70417
      H1   -14.62969   18.24487    0.12164
       H    -7.37917    9.98773    4.05827
       O    -8.05526    9.62169    3.51284
      H1    -7.62848    9.05513    2.84915
       H     0.82110   18.71863    0.85428
       O     1.68041   19.13004    0.94224
      H1     2.34473   18.47584    0.68386
       H    -3.56160   17.17746    4.36723
       O    -2.71726   17.60281    4.43414
      H1    -2.98179   18.40860    3.90422
       H    -7.09973   13.18630    7.94289
       O    -6.74589   12.29696    8.00324
      H1    -6.29257   12.32624    8.89922
       H    -4.16646   18.05389    9.16126
       O    -3.27344   18.32922    9.34002
      H1    -3.33842   19.30155    9.35162
       H   -10.40879   12.99842    7.07671
       O   -10.55798   12.46873    6.28569
      H1   -10.30868   13.00551    5.51548
       H    -9.26332   18.40474   -0.92534
       O   -10.00625   17.82721   -0.97932
      H1    -9.82667   17.08904   -0.27584
       H    -5.68549   19.13728    5.95854
       O    -6.04250   18.79023    6.78057
      H1    -6.89499   18.45079    6.57923
       H   -12.92945   15.91582    3.20447
       O   -13.19786   16.58200    3.80770
      H1   -13.02113   17.40289    3.31210
       H    -7.54324   19.03667    9.41636
       O    -8.33700   18.50410    9.31406
      H1    -8.11835   17.72052    9.79875
       H    -5.41524   12.95078    4.45944
       O    -5.87523   13.07934    3.59041
      H1    -6.48669   13.81287    3.82864
       H    -8.33127   14.20494   -1.17257
       O    -8.85677   14.50985   -1.92294
      H1    -9.17895   13.69137   -2.28891
       H    -9.11219   15.29211    4.49772
       O    -8.45636   15.19745    3.76169
      H1    -8.74386   15.93694    3.10855
       H   -13.36877   17.94847    6.86385
       O   -12.98120   17.23862    7.37437
      H1   -13.32291   16.46881    6.92340
       H    -4.86381   18.44238   -1.80469
       O    -3.97895   18.75503   -1.63104
      H1    -3.51489   18.32042   -0.87337
       H   -13.94804   16.32397   -0.53402
       O   -13.85126   15.32735   -0.68586
      H1   -13.62526   15.23893   -1.65135
       H    -7.15502   15.38533    8.16372
       O    -7.76179   14.69711    8.06085
      H1    -8.40317   14.75652    8.80008
       H   -10.46504   16.36702    5.98457
       O   -10.60877   15.78923    5.25543
      H1   -11.40739   16.12230    4.80469
       H     0.08885   17.05183    6.43911
       O     0.94576   17.51842    6.53648
      H1     0.71002   18.38831    6.27874
       H   -11.60662   15.60842   -0.33717
       O   -10.90910   15.00382   -0.02092
      H1   -10.34419   14.92258   -0.80062
       H    -2.51632   18.28333    7.64811
       O    -1.93420   18.38255    6.81899
      H1    -2.56230   18.12123    6.07041
       H    -2.88934   12.85898    3.16433
       O    -2.50583   13.73534    3.32013
      H1    -1.58472   13.59117    2.99955
       H    -0.50532   17.85507   -2.45700
       O     0.04848   18.43691   -1.93007
      H1     0.15517   19.25831   -2.37544
       H    -6.01308   17.82250    0.16752
       O    -5.59579   17.66411    1.05089
      H1    -5.22633   16.79670    1.00482
       H   -13.71275   13.68342    2.75122
       O   -14.34134   12.94717    2.68497
      H1   -14.74135   12.83155    3.59329
       H     1.40537   19.22394    2.68875
       O     0.95648   19.16993    3.55017
      H1     0.67068   18.24286    3.41228
       H    -6.89191   18.69998   -6.35528
       O    -5.92540   18.84861   -6.19879
      H1    -5.99132   19.48588   -5.50243
       H   -10.68298   18.42496    3.16259
       O    -9.86564   18.70293    3.58483
      H1   -10.22355   18.40350    4.44393
       H    -7.20573   13.34797    0.62891
       O    -7.44901   14.30571    0.37149
      H1    -6.61902   14.60287   -0.01898
       H   -11.59033   14.44820    1.45575
       O   -12.06034   14.52047    2.29611
      H1   -11.48520   13.94441    2.91084
       H    -3.15954   11.74560    5.69069
       O    -2.25722   11.30996    5.69133
      H1    -2.50678   10.45110    5.95763
       H     0.36012   15.03685    2.93346
       O     0.27304   14.06360    2.73452
      H1     1.15602   13.78480    2.52448
       H   -11.47645   17.79774   -3.86512
       O   -10.99161   17.05095   -3.45349
      H1   -10.63067   17.49759   -2.72250
       H    -0.94541   17.06819    2.43894
       O    -0.44980   16.72554    3.13969
      H1    -1.08217   16.92583    3.86214
       H    -6.70951   17.90640    2.47365
       O    -6.98089   18.04899    3.37978
      H1    -7.97264   18.11364    3.32371
       H    -8.60637   17.73564   -5.05119
       O    -8.68636   18.25237   -5.91227
      H1    -9.65050   18.12419   -6.06380

