180
frame 10 | Written by MDAnalysis XYZWriter (release 2.4.3)
       H     4.41513    7.86333  -14.46549
       O     4.53308    7.44186  -13.57816
      H1     4.79579    8.23125  -13.11079
       H     7.11548    2.00142  -17.84504
       O     7.06666    2.37317  -18.75973
      H1     7.87512    1.98949  -19.17836
       H     7.59841   10.07280  -15.98074
       O     8.08450   10.31781  -15.16413
      H1     8.33860   11.26138  -15.31799
       H    12.62970    4.39194  -17.96453
       O    11.96092    4.89015  -17.44499
      H1    11.31291    4.20403  -17.32691
       H     9.30525   -6.72176  -19.26607
       O     9.98034   -7.29960  -19.60779
      H1     9.82071   -8.17287  -19.16114
       H     3.95593    2.76502  -11.45325
       O     4.72582    2.63394  -12.07554
      H1     4.92870    3.52361  -12.27776
       H     3.17597   -0.22475  -11.66618
       O     3.15419   -0.56665  -12.55447
      H1     4.10036   -0.42584  -12.76665
       H     8.80281   -4.06592  -11.93987
       O     8.37992   -3.22099  -11.79028
      H1     9.07717   -2.61117  -12.16719
       H    11.90215   -4.04842  -16.65926
       O    12.36867   -3.82153  -15.78810
      H1    12.65484   -4.68306  -15.40195
       H     5.49069   -0.74507  -14.34698
       O     5.56259   -0.63344  -13.37802
      H1     5.95794    0.24905  -13.20550
       H     8.23201    0.25711  -12.41574
       O     8.46243    0.57713  -13.26801
      H1     8.83884    1.45991  -13.17680
       H    12.35541   -4.22136  -12.65951
       O    12.70049   -3.31276  -12.57882
      H1    12.32257   -3.03221  -13.44588
       H    13.99732    4.51968  -19.69672
       O    13.62772    3.80972  -19.13085
      H1    13.24312    3.26118  -19.77640
       H     8.38444    6.68849  -17.89748
       O     8.03728    7.48857  -17.50477
      H1     8.79747    8.04605  -17.44685
       H     6.48537   10.98959  -18.02069
       O     6.52011   10.06018  -17.75617
      H1     6.25156    9.46986  -18.51624
       H    11.21545   -1.20664  -15.73090
       O    10.53892   -1.28894  -16.44176
      H1     9.76955   -1.35657  -15.80392
       H     0.31526    2.76061  -18.37030
       O     0.37120    3.43940  -17.66572
      H1    -0.54665    3.38944  -17.37775
       H     6.14735   -0.05735  -16.36996
       O     5.20218   -0.22481  -16.13704
      H1     5.02429    0.60472  -15.64453
       H     9.48080    2.63196  -11.05955
       O    10.04951    2.67728  -11.80608
      H1    10.69605    3.37679  -11.58978
       H    11.18899    2.49806  -16.41456
       O    10.41200    2.69855  -17.01877
      H1     9.85483    3.21759  -16.43502
       H    12.37702    5.39553  -15.54719
       O    12.24095    5.29149  -14.58108
      H1    11.40595    4.84167  -14.48621
       H     1.91169    1.53909  -14.95783
       O     1.46444    0.66206  -14.73279
      H1     2.03867    0.33091  -13.97200
       H     1.04441   -3.36773  -17.50309
       O     1.84702   -2.76992  -17.59349
      H1     1.81685   -2.43533  -18.48629
       H     3.93548    5.47270  -16.28520
       O     3.17646    5.76113  -15.77847
      H1     3.50270    6.31785  -15.07208
       H    14.00106   -2.76951  -16.38904
       O    14.80287   -2.25521  -16.42846
      H1    15.30041   -2.42676  -15.66474
       H     3.83394    4.75707  -19.28738
       O     3.55830    4.03405  -18.67445
      H1     2.58261    4.04837  -18.82915
       H     9.43851    8.22846  -12.45454
       O     9.97318    7.48407  -12.77406
      H1    10.64233    7.97677  -13.25704
       H     6.46521    5.28887  -15.86477
       O     5.88868    5.76713  -16.48935
      H1     6.26660    6.65038  -16.49159
       H     1.37624    7.45843  -18.30454
       O     1.44854    6.57584  -17.87985
      H1     2.31676    6.49216  -17.52545
       H     7.94443    4.13479  -14.44035
       O     7.41024    3.47677  -14.98720
      H1     6.50296    3.57680  -14.60584
       H     3.89727   10.12731  -15.57435
       O     4.22602    9.26525  -15.85297
      H1     5.09494    9.64443  -16.19819
       H     1.68655    2.92961  -16.39116
       O     2.30260    3.07463  -15.65977
      H1     2.45522    4.02171  -15.76673
       H    11.29494   -2.40813  -17.90320
       O    11.32139   -3.25877  -18.30433
      H1    10.38917   -3.25016  -18.65070
       H    10.17421   -0.44999  -12.17494
       O    10.43318   -1.39094  -12.23477
      H1    10.79369   -1.36346  -11.33512
       H    10.64392   -3.82635  -14.97647
       O     9.77908   -3.65790  -14.53836
      H1     9.33598   -4.47003  -14.77174
       H    14.94865    3.04187  -18.83194
       O    15.80372    2.62726  -18.49228
      H1    15.40177    1.76757  -18.30848
       H     4.41987    2.05185  -13.69535
       O     4.57717    1.92559  -14.62616
      H1     3.91594    2.52889  -15.05511
       H    11.13701    8.75469  -15.76542
       O    10.43820    9.10513  -16.37569
      H1     9.64750    9.33298  -15.86675
       H     3.33878   -3.80543  -17.45595
       O     4.13144   -4.35366  -17.45538
      H1     4.22020   -4.55914  -18.41121
       H    10.00440   -0.11481  -17.88709
       O     9.67227    0.52148  -18.57070
      H1     9.83019    1.39327  -18.16304
       H     5.16523   -3.21074  -15.79718
       O     5.85179   -3.33430  -15.17374
      H1     6.45903   -2.65260  -15.39139
       H     0.47480    5.44339  -16.47692
       O     0.00628    5.57667  -15.60909
      H1     0.38104    6.48939  -15.38486
       H     9.25434    5.49120  -13.96278
       O     9.46139    4.53382  -14.00642
      H1     9.65934    4.28850  -13.06947
       H    13.07918    1.93150  -14.99415
       O    12.55379    1.72152  -15.80706
      H1    12.17106    0.84691  -15.50013
       H     7.60320    1.47766  -15.70529
       O     7.57842    0.76111  -16.38666
      H1     8.55169    0.67115  -16.44129
       H    12.55411   -0.46588  -13.51010
       O    12.23434   -1.05224  -14.23916
      H1    11.47718   -1.53402  -13.81118
       H    14.25835   -0.22916  -17.39098
       O    14.17765    0.64916  -17.69913
      H1    13.90342    1.09981  -16.90947
       H     5.46829    5.90281  -13.27284
       O     5.77967    5.00225  -13.15206
      H1     6.38351    5.09140  -12.43374
       H     5.40738   -5.72108  -13.10920
       O     6.03928   -5.02381  -12.70178
      H1     6.00106   -4.28764  -13.39751
       H     7.04972   -6.11940  -15.82928
       O     6.38718   -5.96175  -16.53983
      H1     5.99561   -5.06376  -16.41786
       H     1.19967    3.86951  -14.13732
       O     0.89292    3.85315  -13.20133
      H1     0.10769    3.33955  -13.42271
       H    12.43439    0.56910  -18.91762
       O    12.20649    0.95245  -19.76093
      H1    11.23495    0.79463  -19.71177
       H     6.52516    2.19401   -9.70786
       O     6.93332    2.04474  -10.58127
      H1     6.21518    2.12822  -11.20574
       H     6.82622    4.98244  -18.11486
       O     7.28511    5.03822  -18.94416
      H1     7.27791    4.06280  -19.20347
       H     3.08874   -1.48386  -14.86012
       O     2.86928   -2.37914  -15.08530
      H1     2.32072   -2.32881  -15.89052
       H    11.50858   -6.42466  -19.79148
       O    12.31326   -5.79075  -19.70382
      H1    11.93993   -5.08096  -19.15702
       H     7.98355   -0.14417  -19.19225
       O     7.45560   -0.80171  -19.70420
      H1     6.74624   -0.99946  -19.06292
       H     3.57511   -0.31628  -17.67344
       O     3.13667    0.11369  -18.38286
      H1     3.53222    0.93080  -18.60221
       H    15.22029    1.23399  -14.05604
       O    14.53623    1.93585  -13.92580
      H1    14.42792    1.89859  -12.96221
       H     8.04013   -1.12291  -14.44479
       O     8.04382   -1.75066  -15.25330
      H1     8.60566   -2.49207  -14.88783

