180
frame 4 | Written by MDAnalysis XYZWriter (release 2.4.3)
       H    -2.40896  -10.33189  -14.25723
       O    -1.98189  -10.06754  -13.48304
      H1    -2.24296  -10.75661  -12.89805
       H    -5.24304   -7.03561  -10.56484
       O    -6.06942   -6.72700  -10.07453
      H1    -5.78323   -6.05087   -9.45049
       H    -5.59130  -13.65873  -13.67085
       O    -5.52891  -13.87889  -12.65982
      H1    -6.37172  -13.55092  -12.34076
       H    -1.06056  -13.43308   -9.33592
       O    -1.14507  -13.18127  -10.27077
      H1    -2.13868  -13.09217  -10.43954
       H    -7.14442   -8.93060   -7.04850
       O    -7.59618   -8.83833   -6.19126
      H1    -7.42445   -7.89973   -6.06795
       H   -10.93648   -3.38351   -5.20193
       O   -11.54142   -3.76911   -5.85156
      H1   -11.10940   -4.61681   -6.01174
       H   -11.50745   -9.03388  -10.14341
       O   -12.01167   -9.19945  -10.96355
      H1   -12.57698   -9.97100  -10.72874
       H    -9.58646   -8.02931   -8.78185
       O   -10.58351   -7.86470   -8.96220
      H1   -10.47440   -7.28066   -9.70828
       H    -8.75424  -11.30929  -13.56937
       O    -8.17591  -12.00939  -13.94842
      H1    -7.70011  -11.62284  -14.66381
       H    -9.00682   -9.01318  -16.35889
       O    -8.50321   -8.24264  -16.11231
      H1    -8.53130   -8.15757  -15.19130
       H    -8.45872   -5.65483  -12.57885
       O    -8.88218   -6.01073  -13.36540
      H1    -8.93195   -5.23813  -13.96575
       H    -2.13135  -10.87723   -8.13980
       O    -1.79653  -10.20677   -8.73477
      H1    -1.25861  -10.69664   -9.39458
       H   -10.09309   -6.59281  -12.20319
       O   -10.60971   -6.69324  -11.39569
      H1   -11.12764   -7.48160  -11.53732
       H   -12.94811  -13.16537   -9.07228
       O   -13.75934  -13.70437   -9.23550
      H1   -13.40897  -14.53487   -9.50383
       H    -9.08409   -4.02767  -10.95270
       O    -8.24375   -4.50329  -10.90132
      H1    -7.64958   -3.73963  -10.82904
       H   -10.68380   -6.37294   -7.41851
       O   -10.50855   -6.06023   -6.51196
      H1   -10.43467   -6.86681   -6.06331
       H    -7.15907   -4.18862  -13.91016
       O    -6.50032   -4.27839  -13.20253
      H1    -7.04473   -4.45627  -12.46740
       H   -11.64425   -3.75003  -10.62801
       O   -11.41670   -4.09743  -11.47928
      H1   -11.29622   -5.06485  -11.32841
       H    -3.03408   -4.64294  -10.13593
       O    -2.75228   -5.33421   -9.55170
      H1    -2.87262   -5.03754   -8.61552
       H    -9.64656  -11.02070   -7.19171
       O   -10.48716  -10.65560   -6.80884
      H1   -10.81454  -11.44852   -6.18814
       H    -7.43815   -8.21375  -13.52297
       O    -8.00511   -8.84421  -12.95972
      H1    -8.63567   -8.24064  -12.56998
       H    -6.69939  -15.01955   -7.89586
       O    -7.65656  -14.85284   -7.95349
      H1    -7.80896  -13.91044   -7.82040
       H    -2.73225  -10.25951  -10.21344
       O    -3.42053  -10.17531  -10.88050
      H1    -3.42899   -9.28240  -11.15525
       H    -6.68547  -13.95762   -4.91173
       O    -7.11810  -13.15077   -5.18873
      H1    -7.31563  -12.85354   -4.27504
       H    -9.42876  -14.90518   -6.90147
       O   -10.37579  -14.82120   -7.08859
      H1   -10.60865  -14.15457   -6.44639
       H    -3.74017   -8.55322  -13.92417
       O    -4.37251   -7.83074  -14.03659
      H1    -4.78797   -8.06006  -14.90243
       H   -10.70990  -11.70669  -12.49879
       O   -10.78307  -10.83856  -12.87794
      H1   -11.19109  -10.27244  -12.20228
       H   -15.46944   -8.70083  -12.69663
       O   -14.68658   -8.57076  -13.17579
      H1   -14.33427   -7.77631  -12.70808
       H   -14.70235  -10.05511  -10.04715
       O   -14.80055   -9.80989   -9.13009
      H1   -14.12975   -9.16401   -8.91130
       H   -12.91236  -11.31352   -8.28276
       O   -12.12529  -11.40803   -8.79924
      H1   -11.45296  -11.24689   -8.09186
       H   -14.92608  -11.38545  -11.99367
       O   -14.28676  -10.75906  -11.53890
      H1   -14.09751  -10.11550  -12.25000
       H    -4.99339  -11.81559   -9.16987
       O    -5.78387  -11.48568   -8.68469
      H1    -5.43166  -10.69767   -8.32745
       H    -7.67476  -11.96299   -8.13546
       O    -8.37448  -12.35304   -7.56081
      H1    -7.88363  -12.58652   -6.73196
       H    -4.32029  -12.90416  -11.38433
       O    -3.90947  -12.65294  -10.58148
      H1    -3.58818  -11.73292  -10.66792
       H    -9.58790   -7.58568   -2.36282
       O    -9.67324   -8.55944   -2.47926
      H1    -9.81993   -8.53458   -3.48371
       H   -11.74613  -12.54411   -4.56335
       O   -11.57196  -12.78972   -5.48716
      H1   -12.38931  -12.49201   -5.93945
       H   -11.63426  -10.76452  -14.50521
       O   -11.92283  -10.77980  -15.45269
      H1   -11.05488  -10.99772  -15.91658
       H    -4.75101   -8.20080   -7.84360
       O    -5.42827   -8.89534   -8.05873
      H1    -5.92146   -8.51039   -8.80959
       H    -7.90182  -15.69774  -11.04776
       O    -8.59556  -15.14697  -10.63505
      H1    -8.10564  -14.95169   -9.77582
       H   -11.48034   -8.74076   -5.09559
       O   -10.58541   -8.33490   -5.26452
      H1   -10.09248   -9.01660   -5.75775
       H    -8.25866   -5.17352   -9.34633
       O    -8.55700   -5.43375   -8.45314
      H1    -8.31183   -6.38219   -8.40009
       H    -3.91721  -12.27811   -6.97807
       O    -3.12720  -12.68031   -7.44812
      H1    -3.53798  -13.42723   -7.94797
       H    -7.52245  -10.40766  -11.42732
       O    -7.64113  -10.55048  -10.43691
      H1    -6.74546  -10.83582  -10.18282
       H    -6.47437   -5.03624   -7.49593
       O    -5.57892   -5.17034   -7.77057
      H1    -5.32178   -5.92136   -7.20475
       H    -6.14921  -10.44936  -16.21385
       O    -6.70218  -11.26489  -16.11669
      H1    -7.30489  -11.10175  -16.81773
       H    -7.92421   -9.05791   -9.68565
       O    -7.98996   -8.21709   -9.18025
      H1    -7.42042   -7.66522   -9.66735
       H    -9.33724  -13.85675  -11.56272
       O    -9.71930  -13.19612  -12.15840
      H1    -8.93124  -12.73682  -12.47963
       H    -3.53721   -5.97306   -6.33392
       O    -4.07942   -6.78463   -6.16990
      H1    -3.92086   -7.01999   -5.25767
       H    -5.52231  -10.60895   -5.03599
       O    -4.69207  -10.32441   -5.41217
      H1    -4.93648   -9.52680   -5.89254
       H   -13.10747   -9.03508   -7.14543
       O   -13.07963   -8.27098   -7.72855
      H1   -12.19882   -8.22273   -8.06244
       H    -5.70262  -10.00225   -2.74062
       O    -4.73159   -9.94739   -2.65609
      H1    -4.56810  -10.10169   -3.59403
       H    -3.43754   -7.15458  -12.00413
       O    -3.61743   -7.43067  -11.08746
      H1    -3.24125   -6.65344  -10.63533
       H   -14.47985  -10.64620   -7.54101
       O   -14.06287  -11.16067   -6.75575
      H1   -14.36287  -10.70146   -5.95988
       H    -8.69549   -2.66938   -5.74657
       O    -8.14546   -3.41856   -6.04996
      H1    -8.68290   -3.82344   -6.73044
       H    -4.26095  -15.71336   -8.21148
       O    -4.80535  -14.96768   -8.53284
      H1    -4.68536  -14.98105   -9.49651
       H    -8.38989   -5.45231   -3.60701
       O    -7.53067   -5.53650   -4.13958
      H1    -7.75037   -4.78630   -4.73038
       H   -14.09855   -6.23577  -10.06694
       O   -13.99388   -5.77561   -9.20502
      H1   -13.72264   -6.39469   -8.57206
       H   -11.07470  -15.91558   -8.65478
       O   -11.01428  -15.97491   -9.62761
      H1   -10.22993  -15.46048   -9.91414
       H    -5.30564   -2.81226   -7.40626
       O    -5.89195   -2.14788   -6.95263
      H1    -6.55567   -2.78698   -6.56949
       H    -6.31141   -6.99806  -15.83996
       O    -6.47089   -5.98960  -15.84833
      H1    -5.74007   -5.77221  -15.23540

