180
frame 5 | Written by MDAnalysis XYZWriter (release 2.4.3)
       H    10.85357  -12.68347   -4.42313
       O     9.86889  -12.67240   -4.47653
      H1     9.74219  -12.41679   -5.41213
       H    15.44388  -16.25270   -2.63860
       O    16.16866  -15.65920   -2.80394
      H1    16.84385  -16.14988   -2.39022
       H    13.22320  -14.58879   -2.89381
       O    13.42270  -15.33889   -2.32615
      H1    12.77536  -15.97896   -2.72026
       H    12.68758   -8.80127   -6.96459
       O    13.62452   -8.74311   -7.27578
      H1    13.89221   -7.83198   -6.91210
       H    16.77064   -5.99633   -4.15411
       O    17.26645   -5.18104   -3.87846
      H1    17.71714   -5.60145   -3.16243
       H    12.40049  -10.57870   -8.76926
       O    12.75464  -11.22350   -8.10254
      H1    13.45677  -10.64039   -7.76346
       H    12.20380  -13.75466    0.59588
       O    13.06302  -13.33845    0.90548
      H1    12.69038  -12.44248    1.15569
       H    12.99767   -4.99962   -4.09463
       O    13.33141   -5.53535   -4.82867
      H1    12.51107   -6.04281   -5.02811
       H    17.05497  -11.30199   -0.96007
       O    17.58276  -11.40473   -1.77498
      H1    17.26370  -10.65096   -2.31299
       H    13.14006  -12.00045   -0.47005
       O    12.69849  -11.42913   -1.09589
      H1    11.76388  -11.51431   -0.82781
       H    12.74060   -5.83836   -1.89016
       O    12.64822   -4.83471   -1.96577
      H1    13.58541   -4.65503   -2.06396
       H    14.83073   -8.08954   -4.08677
       O    14.64155   -8.64987   -3.29744
      H1    13.98584   -8.07036   -2.88925
       H    15.74707   -6.57799   -6.29313
       O    15.52363   -6.74462   -5.34302
      H1    14.74260   -6.20421   -5.24315
       H    11.94866   -7.45728   -0.88760
       O    12.68667   -7.42322   -1.53996
      H1    13.38140   -7.42618   -0.89435
       H    18.07214  -12.61218   -7.08481
       O    18.97998  -12.68712   -6.66893
      H1    19.12118  -13.61327   -6.72099
       H    18.95124   -3.64368   -6.06252
       O    18.00866   -3.90485   -6.19418
      H1    17.70957   -4.33430   -5.38723
       H    18.77082   -3.64965   -1.51472
       O    19.14368   -2.75306   -1.25435
      H1    18.64504   -2.17395   -1.93738
       H    18.81667  -13.46333  -10.35080
       O    18.87356  -12.46703  -10.33099
      H1    19.67513  -12.40462   -9.77930
       H    17.88144   -7.53341   -0.42808
       O    17.68467   -8.34686   -0.89871
      H1    18.52291   -8.52361   -1.33102
       H    18.97548   -9.35363    2.39732
       O    19.07441   -9.15141    1.45581
      H1    18.30064   -8.54460    1.38841
       H    16.66625  -14.68330    0.93482
       O    17.16488  -14.75822    1.78459
      H1    16.72901  -15.52455    2.18616
       H    19.52949   -9.62354   -7.31904
       O    18.94189   -8.88824   -7.13701
      H1    18.15745   -9.19705   -6.64783
       H    16.49302  -13.28331   -8.50574
       O    16.75421  -12.37018   -8.24509
      H1    17.43640  -12.27015   -8.99524
       H    16.02885  -13.61036   -2.85156
       O    16.08447  -12.86540   -3.47119
      H1    16.70069  -12.29004   -3.00978
       H    17.78208   -5.24773    1.09118
       O    18.26056   -5.99735    0.75066
      H1    19.00680   -5.99485    1.33823
       H    15.72914   -8.47373   -0.82860
       O    14.98021   -8.21394   -0.25654
      H1    15.07875   -8.88512    0.54714
       H    10.34515  -12.51429   -7.42508
       O     9.83395  -11.78088   -7.07583
      H1    10.52854  -11.12243   -6.98324
       H    13.25718  -12.46313   -4.20538
       O    12.69493  -12.83510   -3.46350
      H1    12.77363  -12.12980   -2.80006
       H    11.50916  -11.06866    2.68912
       O    11.92887  -11.01137    1.83901
      H1    11.26882  -10.50305    1.33668
       H    15.19355   -6.83986   -8.87265
       O    15.54105   -6.21103   -8.18030
      H1    16.15650   -5.55120   -8.64418
       H    17.87117   -4.21474   -8.27629
       O    17.29548   -4.22954   -9.08846
      H1    17.90447   -4.49272   -9.83862
       H    18.91909  -16.18359   -7.64009
       O    19.41828  -15.48074   -7.22638
      H1    19.97931  -16.07210   -6.72529
       H    15.76214  -10.90780   -7.09878
       O    15.51443  -10.56345   -6.24199
      H1    14.88943   -9.80796   -6.44715
       H    16.05121   -7.07511    3.09778
       O    16.42072   -6.22088    3.12729
      H1    16.31298   -5.89281    2.21789
       H    18.72406   -8.71916   -9.33780
       O    18.33694   -9.13568  -10.13283
      H1    18.61259   -8.64080  -10.93421
       H    14.57208   -2.50935   -7.14930
       O    15.37711   -2.12360   -6.98124
      H1    16.06510   -2.80923   -6.76298
       H     9.93709   -6.67280   -4.45002
       O    10.73253   -7.19004   -4.21898
      H1    10.81784   -7.10870   -3.29730
       H    15.25753  -11.88748  -11.40710
       O    15.69268  -12.73039  -11.24617
      H1    16.04382  -12.85819  -12.12960
       H    15.35577  -14.73616   -1.19494
       O    15.30541  -14.21097   -0.44829
      H1    14.39419  -14.04791   -0.24955
       H     9.16937  -11.00661   -3.98856
       O     8.37563  -10.51567   -3.68150
      H1     7.79111  -11.26079   -3.67907
       H    15.77105  -11.14665   -9.21117
       O    15.52278  -10.30273   -9.51171
      H1    16.27574   -9.83805   -9.83708
       H    13.79315   -4.75238   -6.67514
       O    13.62249   -4.39080   -7.58430
      H1    14.27397   -4.99061   -8.04047
       H    10.68744   -7.87840   -7.12082
       O    10.94738   -8.70757   -6.72640
      H1    10.84324   -8.53919   -5.78969
       H    19.02071   -5.22358   -6.81566
       O    19.41429   -5.86423   -7.46756
      H1    18.94397   -6.71873   -7.22478
       H    16.06903   -4.30683   -2.49278
       O    15.30024   -4.17839   -1.96853
      H1    15.29282   -3.27504   -1.64199
       H    19.79340   -5.14496   -2.08096
       O    18.88897   -5.53244   -1.89297
      H1    18.79343   -5.41523   -0.95942
       H    15.15877  -15.26661   -5.38210
       O    14.81145  -14.44978   -5.78578
      H1    15.41737  -13.81804   -5.40971
       H    15.40624   -6.42905    0.25329
       O    15.47301   -5.49994    0.51144
      H1    15.61914   -5.07980   -0.32596
       H    16.62868  -10.41317   -4.80140
       O    17.00852   -9.89464   -4.04090
      H1    16.17707   -9.55882   -3.66305
       H    11.88593  -13.81661   -8.24990
       O    10.89645  -13.87298   -8.20768
      H1    10.91004  -14.81796   -8.05517
       H     9.22665  -10.20743   -0.75977
       O     9.94650  -10.84542   -0.64472
      H1     9.36154  -11.62187   -0.48879
       H    15.05706  -14.43696   -8.78409
       O    15.83093  -14.78547   -9.25345
      H1    15.54937  -14.68159  -10.18106
       H    13.63031  -13.20162   -7.66465
       O    13.58624  -14.00483   -8.22796
      H1    13.71625  -14.75146   -7.61570
       H    20.06833   -9.41215   -5.30731
       O    19.86461   -9.64049   -4.36608
      H1    18.87674   -9.63784   -4.43111
       H    13.97402  -10.24708  -10.32064
       O    13.56853  -10.18989  -11.19864
      H1    12.62170  -10.27618  -10.88406
       H    13.89477  -10.39834    1.61902
       O    14.82722  -10.35121    1.94669
      H1    15.29918  -10.99807    1.45765
       H    15.06478   -7.70528  -11.38129
       O    14.70910   -7.41916  -10.50548
      H1    14.04056   -8.11717  -10.40158
       H    16.14479  -16.49996   -4.39606
       O    16.00984  -16.94759   -5.21889
      H1    15.23631  -17.48374   -4.97557
       H    15.97583   -9.89785    3.44082
       O    16.40891   -9.32039    4.11017
      H1    17.03235  -10.01844    4.42627
       H    17.73445  -12.23575    1.01820
       O    17.15965  -11.51696    0.91281
      H1    17.77163  -10.82571    1.01627

