180
frame 1 | Written by MDAnalysis XYZWriter (release 2.4.3)
       H   -14.85398   14.57494    5.61559
       O   -14.19736   15.24230    5.72214
      H1   -13.67888   15.31195    4.90895
       H    -3.16159   15.19964    7.09839
       O    -2.43637   14.94734    6.46468
      H1    -1.65639   14.94622    7.13304
       H   -14.38717   17.26794    9.61057
       O   -15.23482   17.71388    9.56326
      H1   -15.17650   18.06832    8.67016
       H    -8.41698   14.06855   14.29038
       O    -9.00313   14.80966   14.20669
      H1    -9.40462   14.81545   13.33169
       H    -5.09925    8.65962    7.81563
       O    -5.85462    9.11369    7.41342
      H1    -6.63042    8.51924    7.62525
       H   -13.16666    8.96506   12.74753
       O   -13.64214    9.69231   13.20617
      H1   -12.88229   10.03883   13.69408
       H    -3.51380   13.64918    5.44912
       O    -4.14345   12.93913    5.27370
      H1    -4.25641   12.47152    6.10560
       H    -5.31410   16.54450    6.25023
       O    -5.33801   15.64076    6.51030
      H1    -5.50457   15.29757    5.58581
       H   -14.08979   16.91056   13.31722
       O   -13.39431   17.41043   12.87963
      H1   -12.75654   17.52749   13.62705
       H   -14.19686   10.05362    6.87720
       O   -15.03917    9.54031    6.85894
      H1   -15.09883    9.27700    7.81500
       H    -6.13178   14.95071   12.75024
       O    -6.21973   14.79315   13.69538
      H1    -5.51623   15.43314   14.00714
       H    -9.28518   12.67996    9.20269
       O    -8.81832   11.89572    8.76868
      H1    -9.45011   11.17354    8.95199
       H    -8.96770   18.53993   12.50950
       O    -9.50713   19.29694   12.26946
      H1   -10.19098   18.84049   11.77960
       H    -9.84779   17.61856    9.07204
       O    -9.24915   16.85614    9.21498
      H1    -9.80775   16.07089    9.05298
       H   -15.62930   13.40664    3.81914
       O   -16.16396   13.47617    4.59645
      H1   -17.06811   13.70604    4.20359
       H   -10.87724   14.04336    9.68314
       O   -10.31425   14.29412    8.93003
      H1   -10.87705   13.98158    8.23015
       H    -8.78334   11.79037   11.76715
       O    -9.35102   12.36041   12.35003
      H1   -10.02815   11.75887   12.71941
       H   -11.54750    9.95194    8.28078
       O   -10.62528    9.91155    8.52588
      H1   -10.21495    9.42676    7.77823
       H   -11.16471   10.41831   14.85739
       O   -11.26128   10.60133   13.90640
      H1   -10.85633    9.83610   13.44940
       H    -8.91542   14.69712    3.59900
       O    -8.38379   14.14895    2.92740
      H1    -7.61126   13.92090    3.44887
       H   -17.44867   17.44417   11.77699
       O   -17.25092   16.81907   11.06360
      H1   -16.37972   17.17161   10.74391
       H    -6.20711   14.32429    9.11199
       O    -6.65966   14.06930    8.31040
      H1    -6.26420   14.79441    7.71836
       H   -10.44084    8.44381   11.47035
       O   -10.98830    9.20749   11.61949
      H1   -11.34091    9.43899   10.71879
       H    -6.85488   13.17452   13.89289
       O    -7.35446   12.41980   14.27590
      H1    -8.11601   12.20994   13.67496
       H   -11.00599   15.81003   11.34507
       O   -10.36390   16.39389   11.85098
      H1    -9.84057   16.85732   11.19521
       H    -8.71459   16.35109    7.53744
       O    -8.52408   15.68296    6.84497
      H1    -8.26083   14.95937    7.43764
       H    -7.65770   11.00803    9.99046
       O    -7.38100   10.77182   10.90446
      H1    -6.66674   11.40361   11.10939
       H   -16.05009   18.27110    5.92833
       O   -16.07832   18.29547    6.95081
      H1   -16.96646   18.66429    6.94235
       H   -11.69707   15.09400   16.20885
       O   -10.70939   15.17806   16.30610
      H1   -10.41384   14.72994   15.50175
       H   -10.73626   13.14877   11.59593
       O   -11.57817   13.27335   11.12690
      H1   -11.82532   12.41654   10.69727
       H    -5.57400   11.22325    7.65424
       O    -4.99040   11.95614    7.89350
      H1    -5.57805   12.72788    8.06778
       H    -5.82958    9.60974   10.83868
       O    -5.15643    9.01512   11.14678
      H1    -4.81393    9.44486   11.96667
       H    -4.22850   12.85908   11.59006
       O    -4.87349   12.50153   12.22570
      H1    -4.73048   12.76707   13.17333
       H    -6.62405   16.92946   11.14402
       O    -6.40794   16.79328   10.20500
      H1    -7.29010   16.93130    9.82301
       H   -10.01813   12.33923    3.14330
       O   -10.02536   11.33484    3.02550
      H1   -10.88938   11.31047    2.62610
       H    -7.16125   16.95194    6.31740
       O    -6.85691   17.90029    6.19273
      H1    -7.41558   18.36330    6.85527
       H   -12.68339   15.17490    3.07720
       O   -12.24464   15.66701    3.79103
      H1   -12.43533   16.55537    3.61995
       H    -6.64303   12.88385    5.26894
       O    -6.99587   12.02668    4.78881
      H1    -7.98416   11.97275    5.09086
       H   -13.44970   15.84390   10.46475
       O   -12.82793   16.45132   10.09175
      H1   -12.71370   16.93357   10.90997
       H   -12.62784   11.79090    6.49280
       O   -12.70886   10.79356    6.56429
      H1   -12.75824   10.53178    5.60765
       H    -5.13708   14.14648    4.15855
       O    -6.02720   14.62811    4.20686
      H1    -6.05395   15.12002    3.38720
       H   -14.43177   18.30179    6.62388
       O   -13.80231   17.98159    5.92966
      H1   -14.04628   17.07155    5.95360
       H   -16.15456   12.66607   12.79590
       O   -16.07605   12.71908   13.75886
      H1   -17.00049   12.66024   14.03085
       H   -11.85979    9.76470    3.09942
       O   -12.10828    9.39876    3.95977
      H1   -11.29223    9.00014    4.28296
       H    -9.17155   12.37856    7.09183
       O    -9.46484   12.30768    6.14802
      H1   -10.00750   11.54147    6.18077
       H    -9.60231   15.90484    5.52691
       O    -9.75682   16.19574    4.58002
      H1   -10.69388   16.00479    4.49563
       H    -7.52081   17.68550   14.12142
       O    -7.75778   17.35274   13.23147
      H1    -8.15413   16.51501   13.54135
       H   -16.59032   13.29312   10.91053
       O   -15.70178   12.82150   10.85918
      H1   -14.99577   13.42387   11.12737
       H   -14.06417   13.32659    2.05372
       O   -14.09715   12.64725    2.73611
      H1   -13.37249   12.08814    2.38151
       H    -8.98354    8.89409    5.39230
       O    -9.04575    8.82671    6.35911
      H1    -8.48696    8.05171    6.55792
       H   -14.76630   15.33999   14.99748
       O   -15.27884   15.36467   14.17599
      H1   -15.48369   14.40218   14.03176
       H    -7.86286   18.58004    4.83097
       O    -8.54026   18.74364    4.15578
      H1    -8.94523   17.82402    4.02092
       H   -10.30137   18.67285    5.10635
       O   -11.01824   19.31505    5.19251
      H1   -11.79336   18.83283    5.50593
       H    -5.24921   18.03956    9.86508
       O    -4.80527   18.88144    9.98456
      H1    -4.42874   18.76088   10.87971
       H   -13.78433   10.62521   11.52675
       O   -13.69075   10.92195   10.58871
      H1   -14.38485   11.55794   10.53382
       H   -12.51719   18.45611    7.59238
       O   -11.90455   18.95989    8.14190
      H1   -11.77292   19.65079    7.49815
       H   -10.98822   18.53857   15.23622
       O   -11.54237   17.72649   15.03406
      H1   -11.06670   17.06295   15.64354
       H   -12.61746   14.25202    6.33396
       O   -12.13028   13.50603    6.74035
      H1   -11.25830   13.41971    6.23558
       H   -14.43050    9.48364    9.85152
       O   -14.72256    8.61644    9.50260
      H1   -13.87995    8.10968    9.41096
       H   -13.16141   13.82817   12.02827
       O   -13.85185   14.46108   11.94786
      H1   -13.89523   14.71397   12.85300

