180
frame 6 | Written by MDAnalysis XYZWriter (release 2.4.3)
       H     3.49250    7.97809  -12.81602
       O     4.16255    8.22032  -12.15837
      H1     4.22030    9.18319  -12.28203
       H     0.24057   15.19416  -13.25488
       O     0.29099   16.10078  -12.78155
      H1     0.66461   16.68007  -13.48634
       H     3.53321   16.58228  -18.31468
       O     3.81164   16.59930  -19.22911
      H1     3.01341   16.91157  -19.66868
       H     6.46716   12.37319  -11.39152
       O     6.27510   12.95986  -10.60219
      H1     5.51373   13.49236  -10.86304
       H     2.76558   10.70483  -12.28770
       O     3.69165   10.98041  -12.18024
      H1     3.74156   10.82869  -11.22394
       H    -3.34747   17.54033  -12.90101
       O    -3.49863   18.50874  -13.03835
      H1    -3.42926   18.63837  -14.00965
       H    -4.37919   17.91104   -8.64270
       O    -3.36802   18.01558   -8.72316
      H1    -3.12756   18.33108   -7.77245
       H     7.50191   15.74190  -15.57343
       O     8.38756   16.09008  -15.54278
      H1     8.24467   17.04173  -15.66278
       H    -2.95065   15.03321  -15.30169
       O    -2.52432   14.17092  -15.28477
      H1    -2.76429   13.77752  -14.42467
       H     5.53215   17.14690  -14.77298
       O     4.55407   17.41606  -14.61579
      H1     4.53354   18.34347  -14.61089
       H     2.44882   19.06667   -4.48981
       O     1.52467   19.31688   -4.64625
      H1     1.28224   18.57081   -5.18680
       H     1.63687   16.26100  -11.57379
       O     2.17845   16.40094  -10.78056
      H1     2.20083   17.37813  -10.74920
       H    -1.64867   18.89681  -17.88303
       O    -1.65147   18.39897  -17.00494
      H1    -1.24292   19.09442  -16.42823
       H    11.16132   16.57236  -12.13425
       O    11.10360   16.64657  -11.16220
      H1    10.69931   17.52779  -11.15996
       H     8.22183   13.02068  -14.28749
       O     7.88011   12.73552  -15.17210
      H1     8.65145   12.40620  -15.65442
       H     1.92790   13.57934  -18.66227
       O     1.79857   14.11606  -17.84672
      H1     2.15655   14.90862  -18.22668
       H     7.98741   12.41367   -8.34478
       O     8.91676   12.64242   -8.08686
      H1     9.25763   13.32585   -8.70249
       H     4.69402   12.46691  -15.92442
       O     4.66337   11.53581  -16.19833
      H1     4.83488   11.70260  -17.15901
       H     9.72633   15.98109   -9.20106
       O    10.32101   15.35897   -8.76022
      H1    10.24257   15.63004   -7.89022
       H     2.51267   11.85973  -15.74459
       O     1.49346   11.95503  -15.74952
      H1     1.41774   12.64688  -16.47990
       H     1.02291   14.08235   -6.47005
       O     0.57322   14.15836   -7.31293
      H1    -0.35321   14.16550   -6.97198
       H     1.26473    9.10497  -12.36073
       O     1.16252    9.97357  -11.91639
      H1     0.62620    9.70812  -11.15845
       H    -0.30047   12.69909   -9.64729
       O     0.00134   11.99909   -9.03873
      H1     0.39098   12.59779   -8.34593
       H     2.38321   14.76231   -4.60500
       O     1.86180   13.96951   -4.79122
      H1     1.12413   14.10045   -4.19233
       H    -3.00918   16.45910   -8.88514
       O    -2.85039   15.49015   -9.15265
      H1    -3.68726   15.09001   -8.91835
       H     6.02900   11.27731   -8.26560
       O     6.60322   11.25848   -7.49093
      H1     6.71222   10.31492   -7.27802
       H     2.73703   19.65466  -16.95553
       O     1.76466   19.65907  -16.97118
      H1     1.58904   18.88382  -16.37523
       H    -2.08111   14.47358   -7.78579
       O    -2.11723   13.88990   -7.02020
      H1    -2.66173   14.43497   -6.44480
       H     4.69842   17.70836   -6.46684
       O     3.69966   17.67428   -6.35381
      H1     3.42779   17.01881   -7.02312
       H     2.24948    9.90730  -15.66036
       O     3.02465    9.49962  -15.30435
      H1     3.65051   10.24982  -15.55727
       H     4.51028   11.78203   -9.42390
       O     4.83512   10.92379   -9.69044
      H1     5.69361   11.08337  -10.12327
       H     9.61161   18.74675  -15.20416
       O     8.73122   18.85744  -15.68285
      H1     9.09999   19.29039  -16.51112
       H     0.90806   12.14853  -12.59843
       O     1.18611   12.89997  -13.21725
      H1     1.26155   12.44600  -14.03842
       H    -1.45296   15.95353  -11.96657
       O    -2.44046   15.92259  -11.81847
      H1    -2.54025   15.72131  -10.90459
       H    -2.61204   12.51180  -11.90647
       O    -1.78123   12.94380  -11.99538
      H1    -1.99080   13.79495  -11.68817
       H     4.98597   13.43369  -19.34802
       O     5.32893   12.72258  -18.72798
      H1     5.51123   13.36427  -18.05812
       H     0.55713   18.87728  -14.29332
       O     1.28307   18.22971  -14.36402
      H1     1.91087   18.60053  -13.65404
       H     9.33776   17.77704   -6.97521
       O    10.19663   17.49751   -6.65220
      H1    10.01523   16.91948   -5.86487
       H     6.40892   13.99110   -9.03739
       O     6.25866   14.76925   -8.43633
      H1     6.29353   14.37190   -7.55468
       H    11.41179   19.15591  -14.55000
       O    10.79140   18.57929  -14.06158
      H1    10.12735   19.18165  -13.68138
       H    11.29961   14.27301  -10.65553
       O    10.88821   13.40844  -10.86916
      H1    10.21169   13.76573  -11.49154
       H    -0.44808   17.98944  -12.36874
       O    -0.40427   18.81436  -11.90880
      H1    -1.32049   19.12004  -11.94440
       H     9.35408   14.92376  -13.59222
       O     8.92188   14.20743  -13.06201
      H1     8.03992   14.58767  -12.92647
       H     4.04846   13.91491  -14.22746
       O     3.96287   13.90399  -15.18912
      H1     4.44445   14.72593  -15.36157
       H     1.59907   16.38294  -16.31054
       O     2.50298   16.66918  -16.62185
      H1     3.02063   16.86395  -15.81423
       H     7.86499   13.24811   -6.67382
       O     7.70100   13.74196   -5.79276
      H1     7.02533   13.23074   -5.31788
       H     6.26686   14.44149  -13.49285
       O     6.14372   15.34013  -13.64005
      H1     5.79787   15.70673  -12.84326
       H     7.97538   18.56285   -9.25134
       O     8.93762   18.50180   -9.07582
      H1     9.09600   19.42598   -9.25606
       H     2.80661   13.56078  -12.37026
       O     3.78375   13.48488  -12.21016
      H1     3.93652   12.51667  -12.22911
       H     3.44844   12.90471   -7.97216
       O     3.48821   12.97879   -8.91834
      H1     3.72322   13.86684   -9.02570
       H     6.70475   14.93328  -17.36392
       O     6.24908   14.57435  -16.60104
      H1     6.85464   13.87487  -16.27286
       H     3.39473   16.25160   -3.31627
       O     3.79018   15.91504   -4.15068
      H1     3.88328   16.78072   -4.51656
       H     3.72861   16.91469  -11.64671
       O     4.54777   17.32983  -11.95504
      H1     4.26392   17.57204  -12.83162
       H    -0.99037   14.88721  -15.98419
       O    -0.26276   15.47504  -16.25520
      H1     0.28213   14.89606  -16.84836
       H    -0.74121   19.17255   -6.71934
       O    -0.32783   18.28338   -6.66063
      H1    -0.03271   18.18342   -7.63401
       H     3.13024   12.77488   -5.62767
       O     3.93704   12.53097   -6.17423
      H1     3.65876   11.59683   -6.38808
       H     5.59236   18.67890   -9.20628
       O     5.99592   17.90554   -8.87237
      H1     5.62030   17.14566   -9.39115
       H     6.33046   19.19551   -5.97404
       O     6.20134   18.30321   -5.52599
      H1     5.47115   18.48683   -4.85872
       H     1.42932   15.61227   -7.50021
       O     1.78488   16.45854   -7.84282
      H1     1.77217   16.35971   -8.76708
       H     5.60219   11.15709  -13.24272
       O     6.46096   11.47616  -12.87893
      H1     7.14657   10.87782  -13.32974

