180
frame 93 | Written by MDAnalysis XYZWriter (release 2.4.3)
       H   -16.62607   -1.88525    3.36785
       O   -16.35473   -1.68049    4.32222
      H1   -16.10341   -0.72369    4.25109
       H    -9.81628   -5.39308    6.53728
       O    -9.26001   -4.58140    6.45382
      H1    -8.75071   -4.88748    5.65993
       H   -13.28031   -3.95586    3.70199
       O   -13.27590   -4.89790    3.59047
      H1   -13.35192   -5.28125    4.51147
       H   -10.33189   -6.79834    7.88122
       O   -11.22388   -6.53004    7.69079
      H1   -11.39746   -5.78759    8.35564
       H    -8.37348   -8.17954    8.31099
       O    -8.87924   -7.46837    8.57074
      H1    -8.26106   -6.70065    8.70802
       H   -11.42867   -5.56348    3.76535
       O   -10.64779   -6.14162    3.73248
      H1   -11.01057   -6.72697    3.07743
       H   -16.85057   -4.82768    8.28666
       O   -16.92011   -4.46703    9.21356
      H1   -16.72631   -3.56437    8.88801
       H   -14.25723   -1.38332   12.87141
       O   -14.79390   -0.70497   12.42865
      H1   -15.66753   -1.07754   12.61110
       H   -17.41760   -0.75601   10.69847
       O   -17.44075   -1.61826   11.09135
      H1   -18.33155   -1.75864   11.50600
       H    -9.89592   -3.13617    7.35632
       O   -10.33955   -2.47405    7.94504
      H1   -11.16165   -2.32233    7.45420
       H    -9.91911  -10.88602    9.36563
       O   -10.25176  -10.03917    8.97761
      H1   -11.07123   -9.80832    9.50035
       H   -14.97785   -8.60021    7.50594
       O   -15.63747   -9.03130    6.99663
      H1   -15.15446   -9.61216    6.42296
       H   -16.24963  -12.43281   11.06991
       O   -16.83120  -13.20397   11.29950
      H1   -17.70732  -12.72013   11.38616
       H   -16.26378   -0.51535    7.37158
       O   -16.11236    0.36680    7.76181
      H1   -16.97303    0.50452    8.20474
       H   -17.76293   -2.29219    7.29949
       O   -16.79393   -2.40098    7.18767
      H1   -16.66507   -2.30071    6.21944
       H   -13.52852  -11.17119   12.02801
       O   -14.42531  -10.84592   12.21603
      H1   -14.38299  -10.91844   13.17767
       H   -19.84664   -9.11690    8.52827
       O   -19.58875   -8.99721    7.57421
      H1   -18.78830   -9.55617    7.47048
       H   -11.18812   -6.98597   13.04754
       O   -11.66747   -7.20120   13.84922
      H1   -11.57397   -6.48917   14.47683
       H   -18.82841   -4.52448    5.16610
       O   -18.16166   -4.43231    4.52801
      H1   -18.44566   -5.11766    3.87710
       H   -10.77971    0.24802   12.46943
       O   -10.30428   -0.57337   12.47748
      H1   -10.86360   -1.21026   11.95681
       H   -11.10168   -9.31145    3.40620
       O   -11.31686   -9.17620    4.36797
      H1   -10.75742   -8.46035    4.56648
       H   -12.93861   -7.44249    7.88135
       O   -13.84046   -7.46121    8.26931
      H1   -13.99193   -6.55188    8.42693
       H   -13.82187   -5.26829   11.20663
       O   -13.15076   -5.13921   11.89505
      H1   -12.82971   -6.03006   12.03396
       H    -7.50803   -6.58083    4.27285
       O    -7.78791   -5.64380    3.99891
      H1    -8.71372   -5.65873    3.86469
       H   -12.67849   -8.02712    9.59416
       O   -12.50494   -8.69569   10.26797
      H1   -11.81317   -8.23223   10.81711
       H   -11.81345   -3.13538   14.18942
       O   -10.97326   -2.67342   14.40036
      H1   -10.93924   -1.94683   13.72725
       H   -17.69615   -8.64772   12.67161
       O   -18.01444   -7.93566   12.03522
      H1   -18.80029   -8.31087   11.71065
       H   -18.22632  -10.89106    5.05047
       O   -18.68810  -11.15336    5.90220
      H1   -17.87453  -11.54505    6.31581
       H   -10.78475  -10.24957   14.09572
       O   -10.70656   -9.55928   14.77155
      H1   -11.09043   -8.74721   14.36417
       H   -15.93606  -12.68511    8.07701
       O   -16.61645  -12.26022    7.62975
      H1   -16.79198  -11.50772    8.19390
       H   -14.15819   -8.04400   14.08393
       O   -14.99937   -7.68958   14.35227
      H1   -15.35726   -7.19725   13.62214
       H   -10.78689  -10.41290    7.05265
       O   -11.12451  -10.93651    6.33467
      H1   -11.09520  -10.32199    5.59386
       H   -10.20549   -6.34251   10.99976
       O   -10.42026   -7.24485   11.27295
      H1   -10.06763   -7.71124   10.52943
       H   -14.32411   -3.59770    8.27215
       O   -14.40515   -4.39485    7.83441
      H1   -14.30921   -4.05486    6.92329
       H   -11.45288   -3.58852    8.95731
       O   -11.89223   -4.40995    9.22761
      H1   -12.79205   -4.22214    8.87774
       H   -17.14389   -6.35058    6.39909
       O   -16.54786   -5.65214    6.60996
      H1   -16.81694   -4.97027    6.02420
       H   -15.76686   -6.30845    1.48798
       O   -15.56909   -5.46228    1.88311
      H1   -14.82023   -5.68509    2.49011
       H   -15.22745  -11.38458    2.97658
       O   -14.51056  -10.79549    2.99323
      H1   -13.82923  -11.40650    2.64460
       H   -13.99812   -7.99164    3.70526
       O   -14.05985   -8.23275    2.70458
      H1   -14.14820   -9.19785    2.75692
       H   -15.58698   -7.13999   10.33796
       O   -15.34820   -6.14236   10.46100
      H1   -16.02506   -5.64908    9.91584
       H    -8.83510   -4.35066   11.79483
       O    -9.30644   -4.54850   10.98226
      H1    -8.97203   -3.85377   10.36311
       H   -13.17702   -1.84016    6.12037
       O   -12.86549   -1.71017    7.07580
      H1   -13.42664   -1.00238    7.31542
       H   -12.76004  -13.10713    9.34141
       O   -12.10892  -13.36055   10.04753
      H1   -12.56201  -14.11714   10.35046
       H   -13.24938   -1.50120    4.40839
       O   -13.80619   -2.23123    4.65164
      H1   -14.75087   -2.00790    4.42789
       H   -14.12563  -10.80196    4.81571
       O   -14.01462  -10.69289    5.74834
      H1   -13.01264  -10.61228    5.85108
       H   -19.94323   -4.87599    8.49271
       O   -19.93465   -4.61325    9.41194
      H1   -19.02133   -4.37980    9.54546
       H   -13.72739   -3.83530   13.11673
       O   -13.53790   -2.93734   13.56812
      H1   -13.71345   -3.20267   14.50196
       H   -14.47931   -8.65890   10.32080
       O   -15.36928   -8.88893   10.62121
      H1   -15.23234   -9.46955   11.40556
       H   -11.85822  -11.87634   10.95661
       O   -11.86426  -11.06083   11.50806
      H1   -12.31719  -10.44558   10.99016
       H    -7.45487   -4.81805    7.82908
       O    -7.19043   -5.31667    8.61851
      H1    -6.24040   -5.42640    8.55111
       H   -16.11148   -8.80595   14.25985
       O   -16.98061   -9.22355   14.04687
      H1   -16.84359  -10.13064   13.99084
       H   -18.18361   -9.72178    9.70477
       O   -17.41649  -10.23491    9.41390
      H1   -16.66546   -9.76678    9.81518
       H   -12.62686   -2.65360   11.99853
       O   -11.99073   -2.31148   11.34235
      H1   -11.71008   -3.10584   10.91998
       H   -13.15142  -13.52520    7.10376
       O   -13.58169  -12.88058    7.70662
      H1   -13.62848  -12.12706    7.15689
       H   -19.25430   -5.77102   14.99123
       O   -19.11085   -5.02685   14.33834
      H1   -18.20006   -5.24508   14.02606
       H   -15.12259   -6.39764    5.77459
       O   -14.43127   -6.98264    5.26186
      H1   -14.34488   -7.71329    5.91279
       H   -13.45521   -1.89577    9.91739
       O   -14.26811   -2.22786    9.48455
      H1   -15.05755   -1.80576    9.88006
       H   -17.16470   -6.47403   12.59144
       O   -16.70767   -5.80908   13.11039
      H1   -15.98778   -5.43426   12.59357
       H   -16.91004   -8.40047    5.71971
       O   -17.44752   -7.94485    5.02176
      H1   -16.75829   -7.70494    4.36245
       H   -11.29634   -8.08863    1.23574
       O   -11.82347   -7.29597    1.47058
      H1   -12.56523   -7.64005    1.99164

