180
frame 1 | Written by MDAnalysis XYZWriter (release 2.4.3)
       H     7.22544   10.72515   -9.24238
       O     6.95164   11.50222   -9.79771
      H1     6.52824   12.05246   -9.12014
       H     3.60940   17.07542  -17.64821
       O     3.90407   17.73180  -18.30110
      H1     3.34527   17.61118  -19.12173
       H     3.20197   10.80425  -12.04012
       O     3.57073   10.96958  -12.94214
      H1     4.47244   10.81431  -12.67926
       H    -2.50091   18.00048  -11.87109
       O    -3.13239   18.19386  -12.60315
      H1    -2.87199   17.58660  -13.26136
       H    -5.68181   18.87440   -7.92521
       O    -4.87485   19.34996   -8.28206
      H1    -4.63125   19.82532   -7.50297
       H    -3.68948   12.29658   -6.46841
       O    -2.93240   11.70788   -6.49334
      H1    -2.14693   12.16208   -6.93442
       H    -4.74360   16.19759   -5.29584
       O    -3.93174   16.47608   -4.82744
      H1    -3.94077   15.85784   -3.98748
       H    -1.58544   16.54804  -14.89292
       O    -0.69422   16.89893  -14.80318
      H1    -0.30260   16.24277  -14.16611
       H     7.05002   18.82288  -13.17363
       O     6.37891   18.68243  -12.52236
      H1     6.04734   19.55536  -12.47800
       H     3.33910   15.13922   -2.00452
       O     3.68504   15.96132   -2.34892
      H1     2.96409   16.39316   -2.81207
       H     5.62466   19.25203   -7.94430
       O     6.45049   19.80482   -7.95582
      H1     6.99905   19.44503   -8.65522
       H     1.93102   16.34979  -12.15018
       O     1.64208   17.15197  -11.59618
      H1     1.70116   17.89590  -12.21766
       H    -5.93091   14.68269  -12.96735
       O    -4.95328   14.56770  -12.85221
      H1    -4.80594   13.79937  -13.39686
       H     1.12103   13.81365  -16.51465
       O     0.92501   14.71181  -16.55997
      H1     1.66134   15.18642  -16.17713
       H    -1.60352   18.09735   -6.92865
       O    -0.82975   17.89637   -6.36188
      H1    -0.36399   18.64579   -6.62935
       H     2.05982   12.01328  -13.77256
       O     1.20923   12.24335  -14.15472
      H1     1.42286   12.20447  -15.05849
       H     1.21252   15.44820   -6.56509
       O     0.61282   15.69850   -7.29971
      H1     0.11843   16.47101   -6.85717
       H     1.19468   10.32018  -11.80952
       O     1.63352   10.49704  -10.96233
      H1     1.61470    9.56219  -10.65889
       H     1.09330   14.73666   -2.88485
       O     0.75563   14.74263   -3.84691
      H1     0.32307   13.86227   -3.81677
       H    -0.41005   12.86675   -8.74470
       O    -0.66518   12.53722   -7.81427
      H1    -0.61707   13.41615   -7.38875
       H     3.43093   15.43133   -5.81130
       O     2.76172   14.75495   -5.69540
      H1     2.33824   15.14829   -4.89060
       H    -1.77094   13.29286   -4.74130
       O    -1.44808   12.63599   -4.15068
      H1    -2.11518   11.90162   -4.33906
       H    -3.27412   18.50348   -8.44394
       O    -2.61106   17.78845   -8.36070
      H1    -2.96888   17.03701   -8.77982
       H     4.40661   10.99478   -5.45283
       O     5.35475   10.79805   -5.64387
      H1     5.18173    9.84080   -5.73448
       H     2.65658   19.27815  -17.62970
       O     1.81510   19.70960  -17.42915
      H1     1.16960   18.97195  -17.46387
       H    -1.72776   15.40386   -6.48100
       O    -2.24338   14.64342   -6.16835
      H1    -3.14688   15.02860   -6.17339
       H     5.00979   17.23147   -8.26883
       O     4.50549   18.05161   -8.26990
      H1     3.66257   17.71911   -8.63805
       H     3.77601   11.18144   -9.80604
       O     4.39194   10.41831   -9.80403
      H1     5.20008   10.90468  -10.05685
       H     9.40113   18.18923   -6.54698
       O     8.60459   18.54172   -6.09059
      H1     7.93623   18.64038   -6.79882
       H    -4.92310   16.36388  -10.40063
       O    -4.47653   15.69221   -9.82218
      H1    -4.83945   14.81204   -9.98998
       H     0.49936   14.39096  -12.09653
       O     1.11599   14.65206  -12.80904
      H1     1.12794   13.88435  -13.41572
       H     4.37756    8.66348   -7.81633
       O     3.48710    9.03316   -7.75100
      H1     3.53218    9.77439   -8.37731
       H    -0.03095   17.38536  -11.13480
       O    -0.99826   17.56009  -10.87808
      H1    -1.05038   17.50388   -9.92596
       H    -1.46032   17.11694   -4.67198
       O    -1.15628   16.61505   -3.88623
      H1    -0.49858   16.01742   -4.33364
       H     0.16801   10.99127  -13.48207
       O     0.03088   10.18531  -12.98160
      H1    -0.92105   10.21207  -12.83270
       H     0.36683   11.81769  -10.53353
       O    -0.09433   12.65590  -10.33743
      H1    -1.02208   12.48428  -10.65009
       H     2.59732   18.69028  -14.09258
       O     2.06039   19.14964  -13.43328
      H1     2.73055   19.54663  -12.78924
       H     6.60281   16.21558   -8.69319
       O     5.83650   15.78137   -8.25813
      H1     5.87012   14.82770   -8.26630
       H     8.49856   15.01080  -13.17140
       O     8.31461   14.39844  -12.47225
      H1     7.36222   14.51388  -12.21541
       H     3.72561   15.29214  -15.17347
       O     3.05683   15.91654  -15.54048
      H1     3.68296   16.65627  -15.70329
       H    -3.28878   13.67810  -11.19530
       O    -2.78820   12.90650  -11.04477
      H1    -3.42823   12.28962  -10.66462
       H     5.26256   17.82886  -15.17299
       O     4.41552   18.25099  -14.98875
      H1     4.66037   19.16074  -15.21450
       H     6.13166   17.24755  -10.20682
       O     7.07006   17.58799  -10.20942
      H1     6.98022   18.14919  -11.08159
       H     7.19687   13.95728   -6.54294
       O     7.55999   14.00965   -5.63232
      H1     6.71816   13.66756   -5.07984
       H     5.39905   13.84172  -12.17186
       O     5.77062   14.37526  -11.43020
      H1     5.15202   15.13243  -11.42069
       H     9.76395   18.48718  -10.83595
       O    10.06137   19.09802  -11.51674
      H1     9.32588   19.72394  -11.45781
       H     0.22267   17.14882   -3.23080
       O     0.97316   17.52748   -2.81336
      H1     1.07618   18.36528   -3.24856
       H     2.30286   12.94691   -8.65051
       O     3.16543   12.87171   -9.11689
      H1     3.07132   13.36863   -9.94184
       H    -4.16405   16.13865  -14.07756
       O    -3.56460   16.53142  -14.71804
      H1    -4.10939   16.97007  -15.38767
       H     5.99633   12.13161   -7.18603
       O     5.70661   12.85568   -7.85274
      H1     4.76234   12.94286   -7.73798
       H     4.93417   17.15484   -4.72621
       O     4.36208   16.91949   -5.46217
      H1     4.91491   17.32306   -6.13654
       H     3.66492   17.21902  -11.85192
       O     4.50752   16.88099  -11.48323
      H1     5.07016   17.28149  -12.21837
       H    -0.07881   16.72583  -18.33998
       O     0.06188   17.46167  -17.70750
      H1     0.20678   16.98485  -16.87952
       H     2.76813   12.99146   -5.37261
       O     2.81929   12.04753   -5.41476
      H1     2.04106   11.74519   -4.85418
       H    -5.88727   18.63551  -11.29770
       O    -5.76187   17.77934  -11.80587
      H1    -4.80457   17.80320  -12.06623
       H     9.90715   16.94484   -9.39677
       O     9.31751   17.71737   -9.19973
      H1     8.51067   17.38679   -9.56475
       H     7.03569   17.61986   -5.15727
       O     6.60813   17.74299   -4.27531
      H1     6.35433   18.71149   -4.20438
       H     1.30283   16.82920   -8.53893
       O     1.79085   17.58203   -8.87734
      H1     1.83780   17.36395   -9.78284
       H     4.28354   12.80622  -13.88136
       O     4.76452   13.62888  -13.99944
      H1     5.25423   13.39365  -14.80633
       H    -0.16901   11.25496   -6.47973
       O    -0.55994   10.54226   -5.96221
      H1    -1.50229   10.76856   -6.07266

