180
frame 4 | Written by MDAnalysis XYZWriter (release 2.4.3)
       H     3.60054  -11.63919   17.50865
       O     3.96972  -10.81607   17.81390
      H1     3.41113  -10.67213   18.54981
       H    11.90750  -15.92912   16.03557
       O    11.69209  -16.03229   17.00874
      H1    10.97228  -15.43180   17.11226
       H     9.10484  -14.52756   16.21258
       O     9.09792  -14.87698   17.13545
      H1     9.12254  -14.08167   17.73622
       H     4.38178  -10.67574   12.05741
       O     3.73526   -9.97960   11.91257
      H1     2.90238  -10.41065   12.06652
       H     6.50528  -18.97050    6.01560
       O     6.77297  -18.54926    6.87216
      H1     6.74807  -19.25754    7.48702
       H     2.91184  -17.38824   15.96696
       O     2.16352  -17.97686   15.94918
      H1     2.29918  -18.14485   14.96232
       H    10.23172  -15.91105    7.17099
       O     9.28761  -15.99116    7.12928
      H1     9.11235  -15.51458    6.33225
       H     2.33038  -13.67656    6.94954
       O     1.62383  -13.03878    7.11330
      H1     1.15628  -13.22433    6.25299
       H     7.86751  -18.09795   13.16586
       O     7.72857  -17.82969   14.11536
      H1     6.91823  -18.28024   14.37846
       H     3.00044  -12.15426    8.70605
       O     3.06870  -12.04283    9.65801
      H1     3.62153  -11.23171    9.80904
       H     1.09838  -18.73647   10.21039
       O     0.68944  -18.62444   11.08347
      H1    -0.24300  -18.87766   10.95300
       H     2.68383  -17.64469   13.08017
       O     2.67855  -18.58146   13.37195
      H1     1.97213  -18.88787   12.77470
       H    13.94206  -11.77627   12.90480
       O    14.19373  -12.04917   13.75783
      H1    13.53917  -12.68948   14.00213
       H     5.55495  -11.93611   13.29068
       O     5.64819  -11.74158   12.32739
      H1     5.33314  -12.60618   11.96094
       H     4.57446  -19.05558   12.55413
       O     5.49048  -19.05118   12.09091
      H1     5.36080  -19.75855   11.46089
       H    10.52351  -15.79692   11.54757
       O    11.06732  -15.45284   12.37463
      H1    11.74128  -14.88356   11.94339
       H     5.04865  -18.10800    7.72899
       O     4.34123  -17.53559    8.07308
      H1     4.87800  -17.00533    8.68535
       H    11.35346  -13.94991   14.59193
       O    12.21476  -13.49399   14.57597
      H1    12.62601  -13.71386   15.40890
       H     8.91125   -9.99623   11.32691
       O     8.39396   -9.14817   11.62894
      H1     7.49204   -9.35113   11.28913
       H     9.08622  -13.50548   14.01641
       O     9.24203  -14.38867   14.35689
      H1     9.71317  -14.81309   13.63506
       H     5.01193  -17.79318   16.09956
       O     5.45759  -18.59645   15.76243
      H1     5.85876  -18.90789   16.57468
       H     9.95866  -10.27427   15.89668
       O     9.17663   -9.96373   15.42427
      H1     8.51862  -10.35702   16.06906
       H     0.78139  -16.51050   15.94655
       O     0.64226  -15.60532   16.24424
      H1    -0.14851  -15.66030   16.81528
       H     3.71756  -13.33343   18.42377
       O     2.96967  -13.39982   17.80639
      H1     2.13708  -13.31814   18.32330
       H    -1.16187  -16.17084   10.32966
       O    -0.19681  -16.10563   10.30841
      H1     0.05147  -16.98759   10.69513
       H     5.78628  -19.25861   18.79460
       O     5.81300  -18.29675   18.53349
      H1     4.97169  -18.19178   18.13943
       H     7.33084  -13.45863    5.94518
       O     6.96290  -12.51026    5.92660
      H1     7.59743  -12.07635    5.32382
       H     2.64917  -12.07045   14.19957
       O     2.90229  -11.81240   15.09179
      H1     2.20061  -12.25880   15.59750
       H     2.43258  -10.04344   15.94824
       O     1.97865   -9.22641   16.14304
      H1     2.12111   -8.75137   15.28074
       H    13.31806  -13.79240   10.68351
       O    13.54120  -14.69674   11.02707
      H1    14.20643  -14.51412   11.69457
       H     4.56965   -8.93580   15.35776
       O     5.13631   -9.42206   15.96676
      H1     4.44484   -9.78073   16.60094
       H     8.88188  -18.90568   10.88102
       O     8.48567  -18.10614   11.23586
      H1     7.75073  -18.04728   10.59629
       H     8.11755  -11.55646    6.99150
       O     8.72561  -11.16106    7.62464
      H1     9.04719  -10.42027    7.05464
       H     2.09063  -16.38592   19.34441
       O     1.29895  -15.91924   18.95973
      H1     1.44723  -16.10296   18.02064
       H     0.65689  -14.13756   15.30469
       O     0.62868  -13.30458   14.77945
      H1     0.57961  -13.66811   13.85616
       H     5.02443  -14.29341   10.72542
       O     4.37212  -13.84969   11.25006
      H1     4.02067  -13.18726   10.62433
       H     7.99534  -15.05887   10.81919
       O     7.09219  -14.73297   10.72261
      H1     6.91535  -14.50730   11.66455
       H     5.64014  -13.77331   19.77424
       O     5.52518  -13.21983   18.99429
      H1     5.58176  -12.30606   19.33503
       H    10.35104  -18.54226   15.70723
       O     9.67183  -19.19592   15.47923
      H1     9.03791  -18.56341   15.03632
       H     1.58655  -12.11724   11.26569
       O     1.75736  -12.06059   12.26836
      H1     0.88439  -12.51143   12.45016
       H     8.80464  -11.15630   13.74075
       O     8.45927  -11.83013   13.12118
      H1     7.55228  -11.49741   13.07850
       H    13.03673  -16.46754    8.05731
       O    12.12756  -16.72994    7.95694
      H1    11.99810  -17.06928    8.83287
       H    12.31973  -19.22450   10.57833
       O    11.57837  -18.63360   10.35780
      H1    11.31623  -18.33205   11.21350
       H     2.91123  -18.49907    8.23428
       O     2.17822  -19.09890    8.36229
      H1     1.56070  -18.69910    7.71739
       H     6.89006  -12.09475   17.23549
       O     7.56517  -11.44937   17.22071
      H1     8.19869  -11.80182   17.88445
       H     4.52630  -15.36700    7.01969
       O     3.87552  -14.67111    6.74859
      H1     4.39940  -13.88299    6.82247
       H    12.46446  -17.42457   18.10172
       O    12.95176  -18.15643   18.48334
      H1    12.53569  -18.05176   19.41095
       H     8.95260  -11.66016   11.38902
       O     9.51118  -11.47929   10.57885
      H1     8.92041  -11.81190    9.92319
       H     5.05947  -15.58073   16.61486
       O     4.30032  -16.13170   16.72623
      H1     3.68021  -15.50134   17.12347
       H     5.98555  -17.78711   10.95307
       O     6.27235  -17.38856   10.05501
      H1     6.48001  -16.46742   10.47002
       H     9.37369  -16.71021   10.08666
       O     9.56469  -15.78323    9.87988
      H1     9.39828  -15.77006    8.92179
       H     4.61840  -15.70600   13.15420
       O     3.66283  -15.90535   13.06311
      H1     3.47284  -15.25899   12.39373
       H     4.60060  -11.93978   15.25285
       O     5.54232  -12.05084   15.13477
      H1     5.89414  -11.24942   15.51788
       H     7.39690  -15.60809    7.78897
       O     6.60258  -15.03335    7.82397
      H1     6.86493  -14.49504    8.56787
       H     7.19993  -14.76433   16.49074
       O     6.42576  -14.61720   15.94334
      H1     6.26311  -13.68409   15.93621
       H     8.16406  -16.47686   17.61719
       O     8.18208  -17.03521   18.45559
      H1     7.37374  -17.52138   18.38348
       H    -0.83915  -14.85653   12.50781
       O    -0.21778  -14.12239   12.30876
      H1     0.24193  -14.46570   11.52759
       H     6.29618  -15.18549   14.21743
       O     6.42363  -15.59318   13.39348
      H1     6.92140  -16.40364   13.60908
       H     3.80265   -9.45153   10.17667
       O     3.66822   -9.53160    9.19048
      H1     4.44082   -9.02792    8.79790
       H    11.71799  -16.96600   13.76703
       O    12.15020  -17.54276   14.42915
      H1    12.14684  -18.46076   14.06494

