180
frame 2 | Written by MDAnalysis XYZWriter (release 2.4.3)
       H    -0.35107   18.49562  -13.86867
       O    -0.31010   19.24296  -13.35771
      H1     0.63948   19.35834  -13.40057
       H     3.49957   16.26571  -17.49668
       O     3.96035   16.87490  -18.09102
      H1     3.45608   16.88415  -18.90210
       H     2.65191   10.05792  -12.47955
       O     3.31997   10.51691  -13.03105
      H1     3.98971   10.75541  -12.32675
       H    -2.84965   17.67922  -12.42379
       O    -3.68225   17.82193  -12.90925
      H1    -3.54845   17.21768  -13.67183
       H    -5.36036   19.09745   -8.08962
       O    -4.37658   19.19581   -8.33508
      H1    -4.14997   19.85037   -7.64514
       H    -1.36999   16.60324  -14.77329
       O    -0.49422   16.91117  -14.97539
      H1    -0.00641   16.51044  -14.24590
       H    -4.01350   17.28222  -19.40662
       O    -5.01850   17.18673  -19.34507
      H1    -5.16916   17.66842  -18.49041
       H    -3.19426    9.00379  -11.26834
       O    -3.28748    9.89636  -11.57186
      H1    -3.25762   10.38663  -10.70548
       H    -3.46877   18.26532  -17.04022
       O    -4.36250   18.13310  -16.60646
      H1    -4.58969   19.06433  -16.45666
       H     1.99027   16.28433  -11.61440
       O     1.95927   17.22502  -11.38577
      H1     1.98535   17.66554  -12.28071
       H    -1.63956   18.36442  -18.36153
       O    -2.21461   19.06622  -18.10610
      H1    -1.84028   19.27819  -17.22048
       H    -3.59050   15.47927  -12.87611
       O    -3.84779   14.65810  -12.49726
      H1    -4.30184   14.33432  -13.29686
       H     1.06001   12.90474  -17.33425
       O     0.91181   13.83176  -17.00330
      H1     1.71489   14.10485  -16.60099
       H    -1.64813   11.25566  -19.12575
       O    -1.49873   11.25089  -18.19049
      H1    -2.44671   11.17121  -17.93278
       H     3.14948   11.71297  -17.07747
       O     2.62440   11.66940  -16.26995
      H1     1.95743   10.95770  -16.39187
       H    -6.04403   11.92486   -9.69602
       O    -5.20371   11.89462  -10.17496
      H1    -5.50483   11.81586  -11.08473
       H    -2.22436   17.28348   -6.91300
       O    -1.50553   17.34126   -6.27878
      H1    -1.16837   18.22710   -6.56205
       H    -4.92641   10.66994  -17.35293
       O    -5.35509   11.55338  -17.05102
      H1    -6.28057   11.22011  -16.87369
       H     2.07777   11.69737  -13.44123
       O     1.29302   12.19340  -13.78146
      H1     1.45449   12.37178  -14.68745
       H     1.27103   15.21485   -6.53125
       O     0.58619   15.47588   -7.21079
      H1     0.13194   16.03652   -6.57578
       H    -5.44065   11.96480  -18.75553
       O    -5.71722   12.67363  -19.43822
      H1    -6.65334   12.41212  -19.61407
       H     0.28941    9.82817  -12.20781
       O     1.00026   10.02088  -11.59216
      H1     0.86716    9.40999  -10.86487
       H    -0.34216   12.74344   -8.79494
       O    -0.59212   13.03112   -7.87023
      H1    -0.31660   13.94797   -7.77487
       H    -3.73388   17.52793   -8.37731
       O    -3.31063   16.63995   -8.36490
      H1    -3.90165   16.14733   -8.92206
       H     2.95776   18.38648  -17.71849
       O     2.26836   18.98564  -17.41096
      H1     1.51312   18.36306  -17.57889
       H    -8.44820   19.49018  -15.61916
       O    -7.49828   19.25694  -15.73866
      H1    -7.41546   18.71127  -14.99175
       H     4.60813   17.12061   -7.96683
       O     3.92759   17.79553   -7.66117
      H1     3.19131   17.67146   -8.28629
       H    -8.20372   14.36066  -12.87063
       O    -7.78650   14.30637  -13.75204
      H1    -7.67268   15.27820  -13.86757
       H     1.22933    8.21832  -14.92715
       O     2.11223    8.44286  -14.75283
      H1     2.09148    9.29827  -15.17326
       H    -8.21301   17.95450  -16.94934
       O    -8.39276   17.53054  -17.78099
      H1    -8.27327   16.60463  -17.49709
       H    -4.66402   14.71874  -10.70409
       O    -4.92342   14.73059   -9.78634
      H1    -4.98176   13.76424   -9.59966
       H     0.97052   15.07703  -18.42603
       O     0.65167   15.67198  -19.19073
      H1    -0.32112   15.42307  -19.15233
       H    -7.15787   15.32891   -8.89369
       O    -7.61955   16.12771   -9.19810
      H1    -7.15175   16.36712  -10.00909
       H    -3.90811   12.75282  -14.54363
       O    -4.11160   13.52737  -15.06531
      H1    -4.52214   13.14941  -15.92017
       H     1.15116   13.96539  -11.36002
       O     1.54904   14.56667  -12.01355
      H1     1.76495   13.90138  -12.67429
       H    -0.67825   16.92956  -10.32659
       O    -1.52504   17.36041  -10.61074
      H1    -2.21620   17.13084   -9.97032
       H    -0.31000   11.26192  -13.87252
       O    -0.83960   10.50409  -13.50760
      H1    -1.66358   10.91350  -13.23198
       H     0.72351   11.73143  -10.83741
       O     0.44761   12.57024  -10.38233
      H1    -0.42426   12.62474  -10.74040
       H    -8.14515   14.15245  -16.69881
       O    -8.20839   14.71968  -17.48225
      H1    -7.25445   14.80574  -17.78879
       H     4.58734   13.46326  -18.48392
       O     4.93458   12.80563  -17.81118
      H1     5.40407   13.47147  -17.23378
       H     3.08065   18.25005  -14.48426
       O     2.49541   18.43963  -13.77304
      H1     2.95465   19.24003  -13.50917
       H    -6.83899   12.74194  -13.00337
       O    -6.42956   12.01191  -12.48932
      H1    -5.91129   11.42475  -13.10638
       H    -3.93936   10.39122  -13.10084
       O    -4.29559   10.68396  -13.96782
      H1    -4.32117    9.78611  -14.38975
       H     3.78168   14.66748  -15.51628
       O     3.10456   15.29090  -15.82847
      H1     3.48272   16.19594  -15.61903
       H    -2.97750   13.33172  -11.54312
       O    -2.52930   12.97999  -10.76461
      H1    -3.31592   12.50675  -10.42292
       H     1.03998    9.45998  -17.61685
       O     0.51987    9.96250  -16.95004
      H1    -0.15346   10.39431  -17.49889
       H     5.52113   16.93907  -15.33599
       O     4.84803   17.38979  -14.83534
      H1     5.40284   18.06975  -14.37229
       H     5.96399   18.35203  -10.32946
       O     6.94598   18.58073  -10.02345
      H1     7.00227   19.54700  -10.13595
       H     4.71454   14.03958  -12.75176
       O     5.23364   14.01492  -11.97212
      H1     5.32741   14.97225  -11.75001
       H    -7.12154   17.44522  -13.00895
       O    -7.72151   17.21147  -13.78888
      H1    -8.63697   17.17749  -13.40137
       H     2.64903   13.06955  -10.77859
       O     3.53462   12.84922  -10.45143
      H1     4.06113   13.33229  -11.13902
       H    -3.73990   15.38785  -15.14170
       O    -3.25149   16.18117  -14.89582
      H1    -3.76506   16.78576  -15.43913
       H    -2.67447   14.68503  -17.45216
       O    -1.73524   14.83481  -17.62425
      H1    -1.26263   14.06787  -17.18115
       H    -5.65986   15.73410  -18.33134
       O    -5.41369   14.94400  -17.76536
      H1    -5.67209   14.18360  -18.25060
       H     6.80263   15.33745  -17.41834
       O     6.38920   15.31568  -16.50167
      H1     6.82701   14.53153  -16.11216
       H     3.84048   17.32579  -10.95633
       O     4.78478   17.17559  -11.24216
      H1     4.80597   17.33370  -12.19466
       H     0.22786   16.87910  -18.20744
       O    -0.14941   17.63520  -17.68666
      H1    -0.39042   17.21432  -16.82440
       H    -6.17642   18.68656  -11.30313
       O    -6.31144   17.75329  -11.60382
      H1    -5.37052   17.56200  -11.91187
       H     1.05067   17.46109   -8.34251
       O     1.28866   18.24899   -8.87584
      H1     1.34878   17.82249   -9.78896
       H     3.91998   12.52717  -15.40238
       O     4.37281   13.09413  -14.77447
      H1     5.06052   12.46334  -14.51574

