180
frame 3 | Written by MDAnalysis XYZWriter (release 2.4.3)
       H    -0.11849   17.07079  -13.20519
       O     0.22125   17.75255  -12.62423
      H1     0.77205   18.31108  -13.30920
       H    10.55654   12.70075  -16.38563
       O    10.50843   13.57190  -15.90643
      H1    11.08035   13.42062  -15.11836
       H     3.85238   15.93419  -17.45336
       O     4.01989   16.16158  -18.37480
      H1     3.28548   16.61913  -18.75903
       H     2.30771   10.89890  -12.56948
       O     3.03629   10.62531  -13.18225
      H1     3.75685   10.48470  -12.56965
       H     7.31174   11.67865  -16.83418
       O     7.42862   10.90061  -17.39159
      H1     6.45978   10.94857  -17.58973
       H     6.67998    9.18590  -15.14278
       O     6.88079   10.04364  -14.79585
      H1     7.03025   10.50052  -15.60330
       H     2.47422   10.74620  -19.64177
       O     1.97688   11.49886  -19.37988
      H1     2.67269   12.16984  -19.57024
       H     7.99322   16.03856  -15.81169
       O     8.75358   16.37274  -15.21693
      H1     8.59257   17.27930  -14.93679
       H    10.31969   16.79243  -16.82056
       O    10.63563   16.13050  -17.39751
      H1    10.40135   15.34824  -16.88740
       H    -1.68610   16.09930  -14.79124
       O    -0.72154   15.95806  -14.88752
      H1    -0.51564   15.25698  -14.28572
       H    -4.23938   17.09197  -19.98559
       O    -5.09497   16.86888  -19.62096
      H1    -5.02858   17.18501  -18.68610
       H    -3.92863   18.28575  -17.16269
       O    -4.74525   17.74837  -16.92844
      H1    -5.31054   18.42405  -16.51116
       H    12.06896   16.09200  -16.59175
       O    12.97233   16.01030  -16.26560
      H1    13.29209   15.11404  -16.42033
       H    10.26713    9.34728  -17.26983
       O    10.51126    9.22096  -18.18750
      H1    10.38575   10.18015  -18.48695
       H     1.97078   16.29251  -10.83533
       O     2.19064   17.20741  -10.83497
      H1     1.44346   17.40315  -11.48829
       H    -1.34907   18.55847  -17.67204
       O    -2.19131   18.97513  -17.77346
      H1    -2.19162   19.59245  -17.00171
       H    11.26366   15.36419  -12.55572
       O    10.67278   14.85080  -11.97595
      H1     9.87100   15.26628  -12.24265
       H     7.39148   13.12358  -14.88614
       O     7.91599   12.90221  -15.68963
      H1     8.73411   13.31102  -15.40577
       H    10.89016   18.66643  -10.57197
       O    11.48802   18.03483  -10.14181
      H1    12.36206   18.15121  -10.62534
       H     1.18877   12.49124  -17.42405
       O     1.38479   13.39951  -17.22476
      H1     2.31679   13.28811  -17.00217
       H     0.07079   12.36420  -19.23990
       O    -0.77847   12.09840  -18.90252
      H1    -1.27180   11.91930  -19.66795
       H     3.74059   11.18928  -16.79800
       O     3.07200   11.04907  -16.16502
      H1     2.31333   11.13571  -16.74980
       H     1.66920   12.59411  -14.39430
       O     1.09612   13.31305  -14.62370
      H1     1.25139   13.36186  -15.55021
       H    13.48812   12.97342  -17.88375
       O    14.05632   13.76138  -17.81401
      H1    13.82881   14.32613  -18.54318
       H     7.91432   18.89685  -17.71176
       O     8.34367   19.77641  -17.44902
      H1     9.11899   19.78308  -18.04362
       H     3.55775   17.55803  -16.76837
       O     3.10342   18.40787  -16.87093
      H1     2.17792   18.14484  -17.05572
       H    12.71344   16.10325  -14.57728
       O    12.36552   16.25995  -13.67471
      H1    11.94357   17.12900  -13.80946
       H     1.28195    8.32347  -15.48130
       O     2.12270    8.06267  -15.05797
      H1     2.64154    8.78886  -15.24758
       H     9.23406   19.10630  -14.22182
       O     8.37582   19.11261  -14.69195
      H1     8.56470   19.45518  -15.58216
       H     0.60208   14.68688  -18.07254
       O     0.07745   15.23065  -18.67868
      H1    -0.74510   14.98928  -18.30266
       H     9.71754   17.01461  -18.78320
       O     8.90110   17.28415  -19.29441
      H1     9.27214   17.61994  -20.14458
       H    10.97168    9.31479  -15.04415
       O    10.34420    9.96908  -15.48909
      H1     9.45310    9.72754  -15.17528
       H     0.63034   14.39030  -11.65265
       O     1.33672   14.62929  -12.22080
      H1     1.05555   14.07621  -12.99247
       H    -1.76337   17.17771  -10.98831
       O    -2.58828   16.72708  -11.16959
      H1    -2.94470   16.63102  -10.24416
       H     6.43408   17.79062  -19.41000
       O     6.04094   18.65999  -19.14229
      H1     5.17237   18.29543  -19.05275
       H     4.81170   12.80359  -18.67713
       O     5.05850   12.46348  -17.76832
      H1     4.74811   13.16276  -17.17569
       H     2.66702   19.33358  -14.97450
       O     2.29367   18.95185  -14.12159
      H1     2.61737   19.55910  -13.44174
       H    11.38554   19.10405  -15.22794
       O    11.36125   18.92290  -14.26707
      H1    11.60029   19.75756  -13.83189
       H     7.67475   16.09604  -13.59429
       O     7.91961   16.24136  -12.64363
      H1     7.31023   15.69870  -12.13121
       H     4.10864   13.39428  -15.27383
       O     3.82913   14.01490  -15.95328
      H1     4.32028   14.82052  -15.67961
       H     1.20811    9.79266  -17.94520
       O     0.52501   10.26818  -17.41863
      H1     0.29735   10.88324  -18.17004
       H     5.39142   17.23703  -15.60815
       O     4.64481   16.71684  -15.24043
      H1     4.03171   17.39249  -15.01757
       H     5.96140   18.51094  -10.27311
       O     6.59631   18.96498   -9.78364
      H1     6.67426   19.81674  -10.25764
       H     6.12284   14.24852  -12.50298
       O     6.08277   14.42381  -11.55350
      H1     5.75628   15.30190  -11.62233
       H     9.09429   18.11083  -11.75177
       O     9.49792   18.96716  -11.86069
      H1     8.77205   19.52203  -12.15338
       H     2.83706   13.63207  -11.37482
       O     3.60416   13.10454  -11.19507
      H1     4.24811   13.82421  -11.21973
       H    -3.66860   15.22981  -15.13884
       O    -3.38667   16.17922  -14.98620
      H1    -3.90340   16.67860  -15.66988
       H    -1.96593   13.69317  -17.22927
       O    -2.15217   14.60525  -17.00519
      H1    -1.47964   14.80188  -16.35753
       H     2.21381    8.52819  -19.90615
       O     2.23379    8.77573  -18.94183
      H1     3.17756    8.91167  -18.73802
       H    -5.19775   15.86157  -17.25015
       O    -5.47273   14.93093  -17.26676
      H1    -4.79402   14.53273  -17.91103
       H    13.88802   17.72925  -18.71764
       O    13.88593   18.04621  -17.79283
      H1    14.17826   17.25603  -17.29153
       H     6.88766   15.15233  -17.67724
       O     6.76869   15.19292  -16.67988
      H1     6.98200   14.28212  -16.44859
       H     3.97576   17.33306  -11.56769
       O     4.89046   17.39970  -11.76697
      H1     4.90079   17.96570  -12.52868
       H     0.71421   17.08557  -18.04957
       O     0.57555   17.67299  -17.28328
      H1     0.34157   17.13086  -16.48522
       H     7.83689   17.78953   -9.06738
       O     8.40008   17.29387   -8.40150
      H1     7.81360   16.57250   -8.16265
       H     1.65921   16.94449   -7.55979
       O     2.22881   17.59429   -8.00247
      H1     2.02194   17.49507   -8.99167
       H    12.19580   10.74300  -17.18854
       O    13.02297   11.21012  -17.34639
      H1    13.09884   11.15507  -18.30693
       H    11.18222   19.56000  -17.57026
       O    11.27107   18.71730  -17.04604
      H1    12.19856   18.43869  -17.26916
       H     4.52713   12.02037  -13.75770
       O     5.42967   12.32715  -13.76511
      H1     5.88680   11.50273  -13.93066
       H    13.06646   13.00532  -13.84426
       O    12.22279   12.53213  -13.78717
      H1    11.91640   12.51594  -12.88514

