180
frame 12 | Written by MDAnalysis XYZWriter (release 2.4.3)
       H     6.97313  -13.89013    3.38715
       O     7.75502  -13.89434    3.93970
      H1     8.12259  -14.75375    3.89320
       H     6.44157   -5.60363   -1.28690
       O     5.58724   -6.05929   -1.21698
      H1     4.94812   -5.43616   -1.60088
       H     9.21504   -9.38324   -2.88299
       O     8.94093  -10.14932   -2.42878
      H1     8.25211   -9.91077   -1.83158
       H     3.46651  -16.76902   -1.95797
       O     4.12863  -17.41841   -1.55901
      H1     3.71247  -17.39931   -0.68660
       H    -0.34104  -12.84686   -1.48172
       O     0.19846  -13.47745   -1.97354
      H1     0.75327  -13.88999   -1.27254
       H     5.23751  -12.00780    2.54432
       O     5.59408  -11.33524    1.91393
      H1     6.22661  -10.75801    2.49357
       H    -2.19461   -9.05639   -2.67040
       O    -2.45061   -8.12892   -2.35565
      H1    -1.57197   -7.69457   -2.52183
       H     0.96779   -5.13515   -1.73039
       O     1.54025   -4.59657   -1.15347
      H1     0.92819   -3.84714   -1.20157
       H     8.52854  -10.72314    3.96354
       O     8.24085  -10.98067    3.00965
      H1     8.05507  -11.91333    3.16476
       H    -2.39553  -11.35482   -2.09884
       O    -2.06463  -10.78561   -2.82764
      H1    -2.65989  -10.67468   -3.53791
       H    -2.26735  -10.27813    2.43097
       O    -2.90979  -10.83990    1.93703
      H1    -3.77197  -10.42449    2.16741
       H     1.15981   -8.52488    6.17118
       O     0.63326   -8.51995    5.34242
      H1     1.31924   -8.00272    4.90268
       H     3.21486   -4.12545   -1.86156
       O     3.95143   -4.17030   -2.46329
      H1     3.82522   -3.31512   -2.96903
       H     5.50377  -10.15608    7.12193
       O     5.52904  -10.33850    6.17305
      H1     5.58319  -11.32335    6.14543
       H     5.84591   -4.20329    3.71874
       O     5.37702   -5.00872    3.50517
      H1     6.07879   -5.60996    3.26797
       H     7.22108  -16.30941   -2.45514
       O     7.63585  -15.69214   -3.06370
      H1     7.36203  -14.87606   -2.63537
       H     7.76866   -9.87622    1.20790
       O     8.28560   -9.11509    0.86349
      H1     7.73829   -8.96884    0.06547
       H     4.39487   -8.03790    2.57795
       O     4.51398   -8.78794    3.10946
      H1     3.96141   -8.63321    3.83511
       H     2.94992  -15.10877   -2.38115
       O     2.20942  -15.70209   -2.10187
      H1     1.93004  -16.05375   -2.95820
       H     3.23499   -5.03906   -3.91795
       O     2.81864   -5.32315   -4.78076
      H1     2.28909   -6.07689   -4.46086
       H    -0.03877  -12.03456    2.82590
       O    -0.18476  -12.69619    2.16436
      H1    -0.39711  -12.16818    1.40332
       H     6.06600   -7.69860   -4.07573
       O     5.63630   -7.99949   -3.21326
      H1     5.48172   -7.10885   -2.84107
       H     7.43568  -15.24562    1.37389
       O     7.46510  -16.23071    1.48453
      H1     7.07930  -16.49233    0.64264
       H     2.40153   -4.18864    1.75145
       O     3.34472   -4.36942    1.68531
      H1     3.67470   -4.25920    2.60252
       H     0.50906  -11.73862   -4.39770
       O    -0.33152  -11.70096   -4.90341
      H1    -0.96965  -11.45592   -4.18319
       H    -2.39870   -7.52434   -0.50205
       O    -3.04617   -7.25980    0.21630
      H1    -2.69077   -6.39504    0.47341
       H     2.56498   -9.60996    0.40264
       O     2.75662  -10.54389    0.27539
      H1     3.59634  -10.55031    0.75263
       H     9.89494  -10.54028    1.68282
       O    10.78252  -10.93152    1.87571
      H1    11.06164  -11.11127    0.97253
       H    -0.86470   -8.28814    2.11861
       O     0.12705   -8.18872    2.09212
      H1     0.42732   -9.10084    2.31684
       H     1.11612  -10.83668   -0.18415
       O     0.14554  -10.99262   -0.19814
      H1    -0.15142  -10.11844   -0.44234
       H     4.78585   -6.42475    0.39188
       O     4.40536   -6.87654    1.15600
      H1     3.86618   -6.07825    1.44631
       H    -2.97894  -13.12000   -0.34988
       O    -2.59080  -12.24351   -0.40967
      H1    -2.58458  -12.00075    0.51350
       H     1.27836  -14.03855    2.46536
       O     2.07758  -14.51356    2.76789
      H1     2.17212  -15.22752    2.08596
       H     3.03853  -12.58905    5.55058
       O     2.09228  -12.51591    5.66333
      H1     1.89875  -11.82272    5.07917
       H     6.40655  -13.02149    6.10446
       O     5.42547  -13.07339    5.93058
      H1     5.32774  -13.23075    4.98044
       H     3.91981   -9.06365   -2.87664
       O     3.14112   -9.57307   -2.55383
      H1     3.31901   -9.54522   -1.59506
       H     2.17665  -10.26145   -6.11380
       O     1.56555   -9.52684   -6.00160
      H1     0.99917   -9.67511   -6.81434
       H     2.43109  -11.13021   -2.87790
       O     2.01885  -11.87829   -3.43310
      H1     1.51225  -12.24269   -2.71389
       H     4.81099  -14.70550    3.31582
       O     4.88477  -13.70282    3.17772
      H1     3.91027  -13.49387    3.33196
       H     1.44445   -8.21627   -4.72277
       O     1.72607   -7.52197   -4.06970
      H1     2.17270   -8.00478   -3.39908
       H     6.17162  -16.53104    2.51228
       O     5.48985  -16.46258    3.16213
      H1     4.98636  -17.27030    3.09000
       H     2.11678  -16.36036    6.05547
       O     1.55041  -15.58459    5.98100
      H1     2.22666  -14.96697    5.61363
       H    -1.41855  -10.56882    4.82391
       O    -0.65101  -10.79553    4.31147
      H1     0.04238  -10.09991    4.51304
       H     0.77906   -5.39220    0.00990
       O     0.08217   -5.61894    0.67281
      H1     0.35443   -6.47975    0.98863
       H     3.76450   -9.06688    6.25491
       O     3.58453   -8.28145    5.65848
      H1     4.34061   -7.71030    5.93013
       H     2.86545   -7.46558    0.41322
       O     2.01829   -7.74667    0.11849
      H1     1.47069   -7.79774    0.91721
       H     6.15381   -9.17097   -1.77768
       O     6.41852   -9.67042   -0.96831
      H1     6.06158  -10.59640   -1.15974
       H     6.59441  -12.64810    1.17927
       O     7.25469  -13.35765    1.03117
      H1     8.01016  -12.86254    0.71099
       H     2.03948   -5.82183    5.67528
       O     1.83858   -5.25269    4.97488
      H1     0.89521   -5.22329    4.98920
       H     5.36994  -12.39393   -2.81971
       O     6.17509  -11.99930   -2.51880
      H1     6.61783  -11.83330   -3.36217
       H     2.95138  -12.14099   -6.24869
       O     3.44947  -11.44299   -5.83362
      H1     3.16855  -11.45465   -4.92757
       H     3.56583  -17.97598    1.98156
       O     3.13405  -17.60026    1.20604
      H1     2.26253  -18.10131    1.11332
       H     3.62480  -10.72833    2.99180
       O     2.83603  -11.24874    3.26610
      H1     2.45655  -11.36946    2.42428
       H     4.54915  -14.60058   -3.72879
       O     4.12524  -14.00121   -3.10952
      H1     3.58868  -13.56354   -3.72659
       H     0.12501  -14.76170    4.97243
       O    -0.62987  -14.95930    4.41656
      H1    -0.48152  -14.25708    3.81104
       H    -1.23600   -5.11938    2.79935
       O    -0.82556   -5.50389    3.59866
      H1    -0.86381   -6.44441    3.42501
       H     6.27625   -7.89929    3.11696
       O     6.81735   -7.21737    2.79754
      H1     7.22824   -7.59376    1.94243
       H     6.32871   -8.87034    5.63379
       O     6.71232   -7.94656    5.66018
      H1     7.35604   -8.05912    6.38093
       H     8.54545   -7.00989    3.20228
       O     9.47562   -6.87460    2.93483
      H1     9.87716   -7.62120    3.35941
       H    -3.21229   -8.25051    3.23761
       O    -2.40961   -8.09268    2.73887
      H1    -2.78988   -7.90127    1.87084

