180
frame 10 | Written by MDAnalysis XYZWriter (release 2.4.3)
       H   -16.45465    1.56616  -10.05843
       O   -16.33878    2.40687   -9.64189
      H1   -15.89480    2.89451  -10.28410
       H    -9.47231    9.95498  -11.77039
       O    -9.89817   10.69076  -12.20137
      H1    -9.59749   10.47132  -13.11093
       H   -13.06010    8.55925  -11.21102
       O   -13.50044    8.32163  -10.35896
      H1   -12.62765    8.17169   -9.90867
       H   -11.97625    4.13656  -11.96815
       O   -12.11979    3.45768  -12.66578
      H1   -12.80931    3.92670  -13.12291
       H    -9.80866    6.29691  -11.34209
       O   -10.08831    6.78754  -10.62762
      H1   -10.81246    7.32462  -10.96708
       H   -13.01702    4.77139   -8.79776
       O   -13.63451    4.62392   -8.06150
      H1   -13.29298    3.78017   -7.68331
       H   -11.27264    9.61321  -12.31910
       O   -11.97778    8.89363  -12.47089
      H1   -11.62089    8.36799  -13.19403
       H   -15.94766    3.54631  -13.39711
       O   -16.33505    2.81858  -12.89777
      H1   -15.56610    2.32460  -12.64092
       H   -13.77684   -1.79463  -14.58165
       O   -13.96681   -0.85477  -14.46573
      H1   -14.91308   -0.88283  -14.55072
       H    -6.30143    1.26794  -14.78062
       O    -7.17323    1.55304  -15.08067
      H1    -7.38946    0.72771  -15.57873
       H   -10.04784   13.03582  -15.82435
       O   -10.61541   12.52824  -16.46828
      H1   -11.46143   12.95237  -16.18019
       H    -6.56023    4.00486  -14.86590
       O    -6.30811    4.65057  -14.12006
      H1    -7.10275    4.59938  -13.52385
       H    -4.90360    6.57259  -14.86516
       O    -4.06129    6.98687  -14.77925
      H1    -4.23944    7.84540  -15.31640
       H   -16.89571    6.82133  -13.96370
       O   -17.32436    7.04867  -14.73049
      H1   -18.17360    6.52210  -14.69191
       H   -14.49061    5.37276  -13.71763
       O   -14.10132    4.52732  -14.00499
      H1   -14.27569    4.50962  -14.97651
       H   -10.31170    7.60306  -15.85351
       O    -9.63614    7.70105  -15.14821
      H1    -9.51515    8.65281  -15.15032
       H    -7.76730    8.75446  -10.66444
       O    -8.34171    9.49637  -10.22819
      H1    -8.03765    9.35430   -9.29922
       H   -14.80338    6.10149   -7.93511
       O   -14.97414    7.04432   -7.65183
      H1   -15.79532    7.23413   -8.05261
       H   -15.23574    7.30718  -16.84270
       O   -16.07710    7.70759  -17.14581
      H1   -16.66538    7.60817  -16.38232
       H    -7.99072    7.04414  -15.31871
       O    -7.02703    7.03697  -15.14433
      H1    -6.86146    6.11507  -14.93311
       H   -17.27349    7.86824  -19.89934
       O   -17.56550    8.52836  -19.23139
      H1   -17.04626    8.27098  -18.51973
       H    -8.76606   -0.27775  -10.98401
       O    -9.40095    0.45464  -10.88826
      H1   -10.11803    0.11442  -11.45906
       H    -8.48695   11.04684  -15.11128
       O    -9.28392   10.48302  -15.09054
      H1    -9.94164   11.14018  -15.44527
       H   -11.88852    9.45954  -17.64244
       O   -12.44486   10.23271  -17.39064
      H1   -11.73154   10.90542  -17.37553
       H   -15.46000   10.99687  -14.96404
       O   -16.12026   11.71061  -14.99780
      H1   -16.81121   11.40533  -14.33476
       H    -9.37248    4.01389  -13.50615
       O    -9.30085    4.89430  -13.18034
      H1   -10.23486    5.28579  -13.33384
       H   -11.14253    7.70610  -18.91684
       O   -10.79822    8.06194  -18.13730
      H1    -9.87026    7.86306  -18.14270
       H   -12.95907    1.00088  -12.46106
       O   -13.69361    1.47285  -12.00516
      H1   -13.33582    2.37322  -12.05218
       H   -12.03979   11.66493  -10.11649
       O   -11.41026   11.14926   -9.59947
      H1   -10.57663   11.61404   -9.80682
       H    -7.44658    7.43390  -18.60748
       O    -8.00612    7.52559  -17.86051
      H1    -7.29967    7.45405  -17.15597
       H   -17.99621    7.71739  -12.30949
       O   -18.12014    8.69990  -12.31956
      H1   -17.50088    8.86625  -11.59968
       H    -7.10011    7.94055  -12.98279
       O    -6.98021    8.04294  -12.05334
      H1    -6.06455    8.35287  -11.85536
       H   -17.82618    2.22933  -15.74882
       O   -18.10333    1.96463  -14.89536
      H1   -17.36926    2.14292  -14.30294
       H   -13.97089    4.59803  -19.44896
       O   -14.76544    5.17910  -19.36146
      H1   -14.97809    5.04382  -18.44805
       H   -14.11460    3.61172  -16.94058
       O   -14.70467    4.25559  -16.51882
      H1   -15.61886    3.99923  -16.72290
       H   -15.16761    7.75759  -12.98226
       O   -15.23131    6.76082  -12.81373
      H1   -15.03648    6.71797  -11.87013
       H   -13.09177   12.46413  -15.26193
       O   -13.09670   13.21144  -15.81206
      H1   -13.26799   13.90879  -15.19996
       H    -8.37467    3.35924  -18.95239
       O    -8.21448    3.53384  -19.89342
      H1    -7.93575    4.45328  -19.90802
       H   -13.15538   10.24253  -13.73186
       O   -13.38905   10.67321  -14.54089
      H1   -12.82452   10.16321  -15.19636
       H    -8.86801    1.63001  -12.44437
       O    -9.17431    2.11253  -13.21955
      H1    -8.41380    1.96133  -13.86322
       H   -12.65865    0.10545  -15.25046
       O   -11.87809    0.31823  -15.79204
      H1   -12.12338   -0.11786  -16.58731
       H   -10.47447    2.71462   -8.65938
       O   -10.23668    2.94765   -9.56640
      H1    -9.95553    2.04372   -9.87439
       H    -6.69907    3.87230  -17.20347
       O    -5.91883    4.40540  -16.86340
      H1    -5.75672    4.95703  -17.62540
       H   -10.81293    6.81530  -14.18698
       O   -11.51656    6.53912  -13.58636
      H1   -12.16712    6.22454  -14.29352
       H    -7.85727    5.22622  -11.64750
       O    -6.92777    5.38643  -11.45516
      H1    -6.79735    6.28856  -11.70690
       H   -11.30206    0.05105  -13.86504
       O   -11.24735    0.34242  -12.90482
      H1   -10.67156    1.20596  -13.01867
       H   -18.54466    5.19690  -12.91220
       O   -18.22396    5.68346  -12.17679
      H1   -18.96807    5.78887  -11.62197
       H   -11.45485    4.15128  -10.23747
       O   -12.07010    4.86581  -10.42755
      H1   -11.48637    5.62163  -10.53616
       H   -17.98225    5.23392  -16.62281
       O   -17.49406    4.38194  -16.83041
      H1   -18.06480    4.05626  -17.54812
       H    -8.22563    9.85507  -17.59693
       O    -7.75196   10.63446  -17.87140
      H1    -8.42895   11.31903  -17.92922
       H   -11.09874    9.38322   -9.23708
       O   -11.10352    8.55042   -8.75343
      H1   -10.47978    7.92277   -9.06784
       H    -7.74053    2.30118  -16.65336
       O    -8.19494    2.79289  -17.36526
      H1    -8.91360    3.16549  -16.84345
       H   -10.03088    5.24868  -18.24479
       O    -9.66003    5.31278  -17.34077
      H1    -9.18155    6.11139  -17.48281
       H   -18.50509    3.86978  -14.51595
       O   -19.21443    4.54855  -14.30360
      H1   -19.89809    4.23416  -14.96074
       H   -11.35928    6.03588  -16.71952
       O   -12.10496    6.42984  -16.27116
      H1   -12.31959    7.10724  -16.92851
       H   -13.24939    9.90709   -8.65685
       O   -13.78505   10.05176   -7.87844
      H1   -14.24523    9.16492   -7.87154
       H   -12.40610    2.51368  -20.21548
       O   -12.37418    3.37317  -19.63891
      H1   -12.17425    3.01468  -18.79667
       H   -15.41501   10.40599  -12.79200
       O   -15.56888    9.54646  -13.28494
      H1   -16.53551    9.46476  -13.26223
       H   -11.80659    3.62154  -16.21342
       O   -12.15471    3.01896  -16.88862
      H1   -12.01633    2.14820  -16.47921
       H   -15.72701    9.09076   -9.78514
       O   -16.65581    8.72635   -9.86775
      H1   -17.12608    9.40341   -9.25905

