180
frame 8 | Written by MDAnalysis XYZWriter (release 2.4.3)
       H   -16.51372  -16.15093    7.08093
       O   -17.19937  -15.68691    6.56023
      H1   -17.14306  -14.75646    6.85903
       H   -16.51085  -16.23804    5.08577
       O   -16.52460  -16.63912    4.16317
      H1   -17.43168  -16.90310    4.19798
       H    -9.48831  -17.64201   13.72236
       O    -9.53774  -18.01891   14.60190
      H1    -8.63521  -18.26684   14.75919
       H   -15.57128  -12.28407   10.23496
       O   -14.96849  -11.56313   10.11065
      H1   -14.80301  -11.32570   10.99695
       H    -9.72573  -14.20023    0.29538
       O    -9.27359  -13.38992    0.24661
      H1    -8.89671  -13.27064    1.19661
       H    -5.49336  -15.87033    9.73298
       O    -6.15026  -16.56839    9.80631
      H1    -6.92146  -16.39486    9.21404
       H   -12.26645  -14.26679    0.92097
       O   -12.77656  -13.59559    1.39711
      H1   -12.06934  -12.98342    1.80089
       H   -12.69727  -17.81396    5.69322
       O   -11.79632  -17.53693    5.73713
      H1   -11.99451  -16.75609    6.28599
       H    -9.68149  -14.24720    3.94566
       O    -9.56160  -13.47782    4.52933
      H1    -8.87262  -12.98521    4.04527
       H   -12.97508  -15.00747    5.51817
       O   -12.67819  -14.82597    6.43114
      H1   -13.53346  -14.74267    6.92003
       H   -18.82171  -19.39364   15.28195
       O   -18.40671  -18.64098   14.85967
      H1   -17.66119  -19.03980   14.42205
       H    -8.33849  -16.65729   11.90694
       O    -9.17447  -16.55950   12.40147
      H1    -9.76782  -16.45337   11.63142
       H    -6.29159  -15.73794    3.06837
       O    -7.04211  -15.33568    3.61733
      H1    -6.89428  -15.78200    4.48060
       H   -15.76108  -18.04460    3.46710
       O   -15.19226  -18.84622    3.52643
      H1   -15.17127  -18.95582    4.50355
       H   -16.03914  -12.98255    8.36969
       O   -16.90951  -12.67262    8.55531
      H1   -17.03842  -11.96283    7.93320
       H   -13.95192  -12.81766   10.58415
       O   -13.50478  -13.70523   10.62019
      H1   -13.54042  -13.85970   11.58416
       H   -17.20262   -9.98258    8.19996
       O   -17.63591  -10.16385    7.29742
      H1   -18.55700  -10.47338    7.57188
       H   -13.26702  -19.29688   13.89700
       O   -14.20470  -19.26700   13.84558
      H1   -14.24309  -18.45195   13.29728
       H   -14.41776  -14.35622    9.04261
       O   -14.74050  -14.84656    8.28962
      H1   -15.17735  -15.56464    8.71870
       H   -10.55296  -16.79689    4.40460
       O    -9.78397  -16.46809    3.89314
      H1    -9.06507  -17.01238    4.27820
       H   -10.36691  -15.74302    7.95907
       O   -11.22487  -15.96106    8.31638
      H1   -11.79619  -15.24472    7.93454
       H   -16.59846  -18.34601    8.16181
       O   -15.91615  -17.68698    8.14317
      H1   -15.31180  -17.98821    8.82843
       H   -15.73901  -19.98290    6.06582
       O   -14.98877  -19.39918    6.34214
      H1   -15.39365  -18.72195    6.96475
       H   -17.05488   -9.29189    5.94792
       O   -16.60869   -9.10874    5.12779
      H1   -16.26161   -9.91798    4.77271
       H   -11.25105  -16.76534   10.21057
       O   -11.49382  -16.98279   11.12087
      H1   -12.17962  -16.37458   11.42721
       H   -17.91412  -18.38037    1.91722
       O   -18.14087  -17.49556    1.70565
      H1   -17.22338  -17.25000    1.59959
       H   -14.25808  -17.55179   11.15617
       O   -14.47997  -16.97793   11.89123
      H1   -15.43384  -17.02185   11.93882
       H   -17.85991  -15.01426   -3.06768
       O   -17.57745  -15.77416   -3.60827
      H1   -16.67080  -15.78830   -3.31930
       H   -17.03987  -14.78500   11.49899
       O   -16.67299  -13.93709   11.16879
      H1   -17.10022  -13.76258   10.26438
       H   -10.93111  -10.64441    2.91323
       O   -11.56938  -11.30095    3.21751
      H1   -10.95068  -11.79442    3.74768
       H   -14.96696  -14.79013   12.89869
       O   -14.24985  -14.24411   13.16760
      H1   -14.65011  -13.36710   12.93301
       H   -17.81824  -11.28806    0.32793
       O   -17.10304  -10.87373    0.91968
      H1   -17.37295  -11.24099    1.79790
       H    -8.77167  -16.84296    1.91465
       O    -9.05937  -16.98681    1.01774
      H1    -8.18600  -17.08075    0.63504
       H   -13.36145  -14.40508    2.86097
       O   -13.74977  -14.58754    3.71424
      H1   -13.95593  -13.60735    3.99831
       H   -17.80964  -15.36806   15.26814
       O   -18.45124  -15.71663   14.58575
      H1   -18.58747  -16.65439   15.02096
       H    -9.05054  -17.88943    7.54836
       O    -8.12800  -17.50731    7.63018
      H1    -7.74752  -17.66320    6.73633
       H   -12.19126  -10.83498    6.10051
       O   -12.99786  -11.37772    5.93636
      H1   -12.68711  -11.81024    5.10270
       H   -15.67266  -14.30717   -0.74762
       O   -15.40837  -15.13563   -1.12538
      H1   -15.50013  -15.70713   -0.35757
       H   -18.39198  -19.18548    6.07805
       O   -18.36585  -19.20296    5.11306
      H1   -19.27581  -18.95531    4.87566
       H    -9.92541  -13.27859    7.58100
       O    -9.21705  -13.88847    7.28345
      H1    -9.49233  -13.95168    6.33699
       H   -14.82330  -11.82819    5.33851
       O   -15.31702  -12.62493    5.03592
      H1   -15.93512  -12.23850    4.35853
       H   -14.45010  -18.95129    0.01060
       O   -15.10745  -19.71027    0.13388
      H1   -15.63418  -19.83103   -0.63832
       H   -19.48626  -17.11464   10.79040
       O   -18.74797  -17.05234   10.16382
      H1   -19.13329  -16.83307    9.26877
       H   -12.08228  -18.65337   -0.99295
       O   -12.57374  -18.56943   -0.19935
      H1   -11.94892  -18.84555    0.53679
       H   -17.79273  -16.54998   12.84515
       O   -17.09504  -16.45208   12.13646
      H1   -17.63155  -16.55008   11.33364
       H   -11.92022  -16.21703   -0.41779
       O   -11.14521  -15.63367   -0.22179
      H1   -10.53047  -16.32171    0.11765
       H   -10.01832  -19.62085    1.39023
       O   -10.69956  -19.06354    1.83245
      H1   -10.39052  -18.18811    1.61531
       H   -17.37448  -12.69362    3.11230
       O   -17.32446  -11.73743    3.38997
      H1   -18.02608  -11.65479    4.13081
       H   -11.48975  -13.34229   10.86695
       O   -10.78415  -13.31719   11.50575
      H1   -10.26009  -12.52479   11.38300
       H   -13.14905  -10.28816    3.49091
       O   -13.74069   -9.55762    3.31909
      H1   -13.67167   -9.42159    2.34617
       H   -13.73956  -19.74692   10.18421
       O   -13.66961  -18.80865   10.03880
      H1   -12.81779  -18.51111   10.52846
       H   -20.16379  -14.66406    0.40273
       O   -19.21995  -14.45770    0.12150
      H1   -18.69260  -14.66863    0.90104
       H   -14.54186  -17.51978   -2.48560
       O   -15.39042  -17.91711   -2.31402
      H1   -15.86823  -17.82822   -3.15956
       H    -7.11411  -18.70093    4.97460
       O    -7.96980  -18.46262    5.17263
      H1    -8.24881  -19.13191    5.82853
       H   -15.11667  -14.30944    1.48656
       O   -15.37631  -15.20979    1.76551
      H1   -14.85003  -15.20448    2.62197
       H   -14.62685  -12.26046    0.67551
       O   -15.42038  -12.70730    0.37419
      H1   -16.07298  -11.95257    0.72307
       H   -16.92759  -14.90567    2.57501
       O   -17.84381  -14.48129    2.55349
      H1   -18.36908  -14.98644    3.23864
       H   -10.51265  -20.18443    7.39225
       O   -10.05777  -19.31583    7.26392
      H1   -10.74911  -18.82108    6.71196
       H   -19.62239  -15.31197   -1.56285
       O   -19.87018  -16.00804   -2.18449
      H1   -19.06968  -16.36151   -2.61233
       H   -13.33969  -15.81910   -2.87718
       O   -12.87795  -16.64257   -2.69876
      H1   -12.92484  -17.24240   -3.48967

