180
frame 4 | Written by MDAnalysis XYZWriter (release 2.4.3)
       H    12.20146   -6.70154    2.27140
       O    12.80083   -7.07562    2.87432
      H1    13.69355   -6.79133    2.61096
       H     8.98013  -13.25356    3.23827
       O     9.74872  -12.74603    2.99519
      H1     9.49475  -11.90052    3.27117
       H     9.13583   -8.21124   10.40590
       O     9.51785   -7.75770    9.63231
      H1     9.86018   -6.92966   10.03441
       H    16.70555  -13.92536    7.32899
       O    16.21047  -13.11060    7.24038
      H1    16.87789  -12.43933    7.10857
       H    11.79835  -13.96517    1.21260
       O    12.74757  -13.78499    1.33528
      H1    12.75451  -12.95347    1.82950
       H     9.05901   -9.92529    4.77298
       O     8.56432  -10.64245    4.35512
      H1     7.78613  -10.14791    3.90862
       H     7.08525  -10.05993    7.39081
       O     6.22617   -9.90095    7.00566
      H1     6.10150  -10.82341    6.56916
       H    11.61121   -7.33805   -0.17659
       O    12.00018   -7.35791   -1.03410
      H1    12.77868   -7.84265   -0.82347
       H    11.92668   -4.46891   -0.28773
       O    11.41131   -4.14129    0.43981
      H1    11.04042   -3.28948    0.11883
       H    11.96062   -9.87575    9.52016
       O    11.65977  -10.20631    8.65383
      H1    10.72016  -10.53030    8.85688
       H    14.48100   -2.54344    1.94869
       O    15.00937   -1.72161    1.78873
      H1    14.60463   -1.47695    0.93209
       H     8.60227   -4.66967    4.31711
       O     7.87121   -4.95134    3.72283
      H1     7.47433   -5.64701    4.35469
       H    13.09461   -4.93169    4.15154
       O    12.42405   -5.33080    4.69692
      H1    12.37030   -6.19780    4.26594
       H    17.87411   -8.05313    0.40970
       O    17.25022   -8.63068    0.04155
      H1    17.63351   -8.73962   -0.85514
       H    19.01509  -10.13954    3.66377
       O    18.78039   -9.99199    2.76319
      H1    18.38044   -9.08420    2.74578
       H    12.37265   -6.87260   10.21364
       O    11.94601   -7.02682   11.14740
      H1    11.68278   -6.12790   11.46670
       H    12.92125  -11.38732    8.25519
       O    13.78924  -11.80604    8.23005
      H1    14.40456  -11.03471    8.13452
       H    14.22141   -3.93728    8.74673
       O    14.33330   -4.54762    9.46512
      H1    14.12842   -4.03889   10.27520
       H    13.27088  -14.91704    2.75841
       O    13.50419  -15.79521    3.16469
      H1    12.63179  -16.00760    3.53571
       H    15.14821   -8.83663   -0.53947
       O    14.40829   -8.82098    0.04893
      H1    14.91077   -9.13128    0.83068
       H     9.40770   -7.81278    5.77854
       O     9.81060   -8.70173    5.71514
      H1    10.78142   -8.57731    5.58508
       H     8.91125   -9.99623   11.32691
       O     8.39396   -9.14817   11.62894
      H1     7.49204   -9.35113   11.28913
       H    19.20427  -10.55590    8.35793
       O    18.54589  -10.59588    7.70649
      H1    17.97571   -9.82246    7.92192
       H    11.94978  -10.57594    1.90564
       O    12.77788  -11.03434    2.05367
      H1    13.24563  -11.06791    1.18792
       H    16.44665   -7.96331    8.91460
       O    17.39571   -8.11533    8.64540
      H1    17.33101   -7.71750    7.77789
       H    16.47104   -4.37717    8.72119
       O    17.20243   -3.91626    8.23800
      H1    17.93290   -4.60310    8.21326
       H     7.33084  -13.45863    5.94518
       O     6.96290  -12.51026    5.92660
      H1     7.59743  -12.07635    5.32382
       H    17.15517   -8.08514    3.47384
       O    17.59308   -7.44312    2.93300
      H1    16.80317   -6.94982    2.58016
       H    13.31806  -13.79240   10.68351
       O    13.54120  -14.69674   11.02707
      H1    14.20643  -14.51412   11.69457
       H    14.66350  -15.19552    5.82301
       O    15.38021  -15.83624    5.64928
      H1    15.24242  -16.16312    4.70620
       H    12.34991   -8.95750    6.83105
       O    12.48412   -9.10730    5.88230
      H1    13.17728   -8.44001    5.76412
       H     8.11755  -11.55646    6.99150
       O     8.72561  -11.16106    7.62464
      H1     9.04719  -10.42027    7.05464
       H    12.46457   -8.75263   11.58381
       O    12.79030   -9.56105   12.04325
      H1    13.51740   -9.28462   12.63711
       H     7.65244   -5.72739    8.56936
       O     7.44400   -6.64603    8.36411
      H1     8.04284   -7.19573    8.82542
       H     9.41194   -2.23062    6.53682
       O     9.06808   -3.08507    6.94103
      H1     9.03097   -3.58258    6.09528
       H    14.34510   -7.43690    8.99229
       O    15.01668   -7.45674    9.72711
      H1    14.97350   -6.56253   10.05661
       H    11.30747  -14.71022    4.44168
       O    10.82960  -14.10023    5.00659
      H1    10.69876  -13.31418    4.47431
       H     7.27595   -3.57494    9.18196
       O     8.10693   -4.07036    9.02032
      H1     8.46059   -3.63188    8.18344
       H    15.02071   -6.69198    0.86488
       O    15.11414   -6.01642    1.50456
      H1    15.59369   -5.37518    0.91293
       H    17.56879   -5.83178   10.96718
       O    18.32562   -6.39038   10.70075
      H1    17.91598   -6.90770    9.97021
       H    17.05495  -10.70756   11.67153
       O    16.77967   -9.79790   11.73571
      H1    16.20819   -9.67696   10.96727
       H    12.17981   -6.75822    7.78948
       O    12.54628   -7.50699    8.27928
      H1    11.70911   -7.98016    8.42078
       H     8.95260  -11.66016   11.38902
       O     9.51118  -11.47929   10.57885
      H1     8.92041  -11.81190    9.92319
       H    13.41498  -13.34226    6.91303
       O    13.36275  -14.04157    6.23902
      H1    12.44512  -13.86232    5.93695
       H    13.71244  -11.80742    9.96974
       O    13.66840  -11.76622   10.92648
      H1    13.23088  -10.82712   11.05684
       H    10.38972   -5.69366    1.23400
       O    10.52487   -6.66594    1.25060
      H1     9.82370   -7.02981    0.72282
       H    13.67750   -1.63703    4.87516
       O    13.00801   -2.22535    5.36363
      H1    13.39788   -2.27181    6.29786
       H    10.71679   -4.30182    7.59724
       O    11.41266   -4.98014    7.50674
      H1    11.85702   -4.55260    6.68252
       H    16.30037  -12.26966    9.53002
       O    16.73853  -12.08797   10.37815
      H1    17.68880  -12.05299   10.18054
       H    14.52394  -10.23960    3.13128
       O    15.38944   -9.86736    2.89685
      H1    15.83978  -10.72309    2.71219
       H    18.82493  -11.32867    6.08047
       O    18.59308  -11.52114    5.13378
      H1    17.97346  -12.26143    5.01864
       H     6.86080   -7.57923    2.87016
       O     7.49281   -8.24598    2.63746
      H1     8.28514   -7.84820    3.06209
       H     8.38266   -6.44036    6.96101
       O     8.96708   -6.17637    6.27226
      H1     9.62344   -5.75989    6.84626
       H    16.34989   -9.58250    4.32017
       O    16.85620   -9.18781    5.06032
      H1    17.59339   -9.76436    5.21124
       H    14.00436   -4.66466    1.97155
       O    13.48980   -3.93177    2.36351
      H1    12.78005   -3.88364    1.75446
       H    17.04260  -12.62535    2.79692
       O    16.98606  -12.01954    2.04477
      H1    17.73456  -11.45492    2.21201
       H    17.42885  -14.63317    4.14987
       O    17.07118  -13.78285    4.33654
      H1    16.29891  -14.06075    4.82989
       H    15.61051   -9.79168    6.49415
       O    15.00419   -9.54183    7.18503
      H1    14.13807   -9.82683    6.81853
       H    11.19122   -4.20274    4.66730
       O    10.49583   -3.53670    4.63342
      H1    10.94067   -2.85197    4.19405
       H    14.95411   -2.07983    7.46613
       O    14.05367   -2.35534    7.74732
      H1    13.64215   -1.49670    7.83015

