180
frame 6 | Written by MDAnalysis XYZWriter (release 2.4.3)
       H    16.23828   16.80888   -2.06440
       O    16.12989   17.78603   -2.22745
      H1    17.06549   17.91620   -2.41180
       H    15.88254   10.66845   -7.13213
       O    15.83220   11.14502   -7.96777
      H1    14.98848   11.59231   -7.86535
       H     9.08598   15.12544   -5.09296
       O     9.93177   15.42402   -4.85138
      H1     9.71310   15.88544   -4.07376
       H    12.58335   14.87165    0.39243
       O    12.28858   15.23546    1.20884
      H1    11.54993   15.92051    1.01826
       H    12.37796   18.38695   -6.50650
       O    12.88077   18.38496   -5.67071
      H1    12.76200   17.53839   -5.27284
       H    14.68057   18.57280   -6.66564
       O    15.50524   18.38217   -7.16116
      H1    15.90977   17.64311   -6.75309
       H     6.12418   12.13281   -2.11543
       O     6.97918   11.77218   -2.11101
      H1     7.07237   11.69874   -3.02401
       H    15.62273   10.29238   -0.36210
       O    16.47435    9.77458   -0.45943
      H1    17.15342   10.36940   -0.07387
       H    10.65465   17.98364    1.05502
       O    10.31017   17.09146    1.21957
      H1     9.47503   17.15918    1.72429
       H    13.87483    7.18683   -4.82787
       O    12.99570    7.56303   -4.61462
      H1    13.17451    8.16156   -3.93035
       H     8.61537   12.21961    1.83786
       O     8.00473   11.67050    1.38997
      H1     7.35829   12.32334    1.20611
       H    16.83642    9.24702   -5.03736
       O    16.34306    9.88924   -5.58821
      H1    15.54531    9.99317   -4.97478
       H    13.32732   14.66405   -1.97112
       O    13.14119   13.95471   -1.33160
      H1    12.55312   13.39772   -1.89132
       H    13.27776   19.83493    0.60080
       O    13.08118   18.91302    0.40190
      H1    13.75151   18.35146    0.80934
       H    11.27569   11.84700   -0.63697
       O    12.09335   11.30887   -0.79842
      H1    12.82257   11.97580   -0.65519
       H     7.98741   12.41367   -8.34478
       O     8.91676   12.64242   -8.08686
      H1     9.25763   13.32585   -8.70249
       H     5.94255    9.72378   -0.11045
       O     6.04492    9.32033   -1.03088
      H1     6.38944   10.15182   -1.52373
       H     9.72633   15.98109   -9.20106
       O    10.32101   15.35897   -8.76022
      H1    10.24257   15.63004   -7.89022
       H    14.07966   11.03166   -3.57875
       O    14.07673   10.08144   -3.41617
      H1    14.22710   10.06456   -2.48276
       H     9.35900   14.61737   -0.36002
       O     8.95379   15.47927   -0.30605
      H1     9.64269   16.05554    0.15697
       H    15.75230   12.37759   -0.32983
       O    15.28676   12.30289   -1.17435
      H1    14.50367   12.89087   -0.98928
       H    13.41659    8.95158   -5.77331
       O    13.40314    9.30209   -6.63259
      H1    13.14087    8.60930   -7.21902
       H     8.24387   19.54586   -2.71603
       O     8.33456   19.01129   -1.85295
      H1     8.84205   18.23207   -2.26371
       H    11.24678   14.08616   -3.98030
       O    11.64313   13.21607   -3.75656
      H1    10.89509   12.67437   -4.11453
       H     6.02900   11.27731   -8.26560
       O     6.60322   11.25848   -7.49093
      H1     6.71222   10.31492   -7.27802
       H    18.13571   11.29093   -3.76726
       O    17.78557   11.68269   -2.98287
      H1    16.92122   11.23425   -2.88298
       H     5.35719   11.61945   -4.22003
       O     6.19008   11.41239   -4.66011
      H1     5.96617   11.57122   -5.60764
       H    16.88206   12.42380   -6.83699
       O    17.69377   12.87460   -6.73580
      H1    17.46137   13.81496   -6.74166
       H     9.12776   12.51807   -0.01715
       O     9.80153   12.74481   -0.63886
      H1     9.49801   12.35077   -1.44170
       H     9.52445   11.32657   -5.66951
       O     9.49615   11.79296   -4.79246
      H1     8.95140   12.50754   -5.03298
       H    17.42110   14.36196   -2.37120
       O    16.55301   14.71275   -2.09610
      H1    16.14295   13.92950   -1.73677
       H     5.43739   14.98072   -2.85962
       O     6.36373   15.07948   -2.52080
      H1     6.54296   14.12803   -2.28884
       H    10.37820    8.54867   -2.42519
       O    10.92666    8.57374   -1.57684
      H1    11.07091    9.49412   -1.45995
       H    12.78488   12.36310    2.15779
       O    13.78050   12.31769    2.34639
      H1    13.88700   11.36248    2.34811
       H    10.56146   12.84612    2.68970
       O    11.02241   12.73443    1.82936
      H1    11.27366   13.66844    1.75267
       H    10.10344    9.09163   -5.11947
       O     9.82746    8.56550   -4.39304
      H1     9.95733    7.67253   -4.82280
       H     8.18120    8.95322   -4.82985
       O     7.38212    9.03026   -5.30836
      H1     7.11405    9.92079   -4.96074
       H    10.36963   11.62603   -8.52137
       O    11.10333   11.33038   -9.07143
      H1    11.13224   12.20075   -9.55205
       H     9.33776   17.77704   -6.97521
       O    10.19663   17.49751   -6.65220
      H1    10.01523   16.91948   -5.86487
       H     9.40628   19.03325   -4.94974
       O     8.70146   19.68517   -4.89168
      H1     7.94643   19.08298   -5.13681
       H     6.40892   13.99110   -9.03739
       O     6.25866   14.76925   -8.43633
      H1     6.29353   14.37190   -7.55468
       H    11.29961   14.27301  -10.65553
       O    10.88821   13.40844  -10.86916
      H1    10.21169   13.76573  -11.49154
       H    17.21861   15.94460   -5.79433
       O    16.83127   15.61797   -6.61538
      H1    15.95123   15.25751   -6.30521
       H     9.37852    7.94995   -1.03138
       O     8.58383    7.63200   -0.60272
      H1     7.87320    8.20851   -0.85270
       H    11.03510   18.81109   -7.62162
       O    11.61921   19.60447   -7.82459
      H1    12.23954   19.16498   -8.50680
       H    12.57024    8.33369   -0.61873
       O    13.46792    8.46325   -0.19288
      H1    13.86015    7.61806   -0.37279
       H     7.86499   13.24811   -6.67382
       O     7.70100   13.74196   -5.79276
      H1     7.02533   13.23074   -5.31788
       H     6.55018   14.58368    1.64561
       O     6.97266   14.12245    0.86267
      H1     7.65538   14.82693    0.67341
       H    14.19261   14.00766   -5.63387
       O    14.27969   14.90260   -6.00406
      H1    13.54916   15.08385   -6.61001
       H     7.97538   18.56285   -9.25134
       O     8.93762   18.50180   -9.07582
      H1     9.09600   19.42598   -9.25606
       H    14.94857   15.08058   -3.03541
       O    14.14960   15.51499   -3.36929
      H1    14.24368   15.47260   -4.38252
       H    12.18076   15.85476   -8.44396
       O    12.90315   16.18480   -7.91564
      H1    13.60082   16.20940   -8.59940
       H    12.71267   11.87557   -8.05603
       O    13.34986   12.01436   -7.35762
      H1    13.40827   11.11831   -7.00476
       H    11.76442   10.09665   -6.42336
       O    10.79794   10.21267   -6.59727
      H1    10.81181   10.18391   -7.56239
       H    13.08114   12.89731   -4.48513
       O    13.95833   12.57095   -4.82899
      H1    13.61842   12.34273   -5.78417
       H    13.38921   16.85397   -2.41027
       O    12.63310   17.30441   -1.93277
      H1    13.17259   17.97878   -1.44990
       H     6.33046   19.19551   -5.97404
       O     6.20134   18.30321   -5.52599
      H1     5.47115   18.48683   -4.85872
       H     9.37783   16.34262   -1.84512
       O     9.78000   16.77317   -2.64694
      H1    10.68922   16.78971   -2.29637
       H    15.95095   15.66364   -9.83005
       O    15.36912   16.22597   -9.29566
      H1    15.89713   16.92421   -8.92484
       H     6.95921   18.00834   -1.47635
       O     6.35757   17.37390   -1.03901
      H1     6.47947   16.63635   -1.64311

