180
frame 66 | Written by MDAnalysis XYZWriter (release 2.4.3)
       H   -12.26186    0.44693   -9.45489
       O   -12.15269    1.41877   -9.38395
      H1   -12.31061    1.49161   -8.46504
       H    -6.11525   -2.42141   -8.23336
       O    -5.43096   -2.31771   -8.92579
      H1    -5.50602   -1.37759   -9.21680
       H   -13.52367   -2.36274  -10.89601
       O   -13.11256   -2.25000  -11.82370
      H1   -12.34398   -2.84758  -11.87896
       H   -12.73547   -2.45493   -1.15128
       O   -13.17724   -2.13639   -1.95200
      H1   -12.56073   -2.45894   -2.62523
       H   -12.47147    3.93854   -6.64571
       O   -12.87399    3.13325   -7.09426
      H1   -13.74683    3.22129   -6.65063
       H    -9.33765   -1.05206   -4.05201
       O    -9.71651   -1.43699   -4.80585
      H1    -9.09529   -1.21952   -5.52476
       H   -14.58001   -5.68157  -10.63777
       O   -15.21458   -5.06375  -11.08694
      H1   -14.72306   -4.85160  -11.92290
       H   -10.32624    1.23389  -14.66159
       O   -10.43586    0.71674  -15.47596
      H1    -9.62945    0.24206  -15.68846
       H    -6.43554   -3.80816  -15.17385
       O    -6.95807   -3.59025  -14.40360
      H1    -7.86310   -3.81093  -14.68880
       H   -11.13483   -3.96154   -8.82891
       O   -11.43663   -3.37238   -9.51721
      H1   -12.38024   -3.36338   -9.36195
       H    -7.52416   -4.81439   -4.40107
       O    -6.82632   -4.69713   -5.05085
      H1    -7.13642   -5.23430   -5.78991
       H   -10.02478   -3.71081  -13.48930
       O   -10.45404   -4.43146  -13.05886
      H1    -9.74446   -4.89204  -12.52748
       H   -15.79019   -6.00912   -3.28469
       O   -16.26670   -6.39702   -4.06863
      H1   -15.74345   -6.24023   -4.85707
       H   -12.83066   -9.04685   -7.02626
       O   -12.11380   -8.46934   -7.32390
      H1   -11.83770   -8.79388   -8.18350
       H   -14.43319   -4.20637  -14.46221
       O   -14.29902   -4.47041  -13.50408
      H1   -13.45635   -4.17562  -13.18304
       H   -13.09234   -4.39007  -16.81255
       O   -13.48909   -4.86387  -16.05207
      H1   -14.14097   -5.42494  -16.52154
       H    -9.85590   -5.19055   -4.47269
       O    -9.63666   -5.95542   -3.89726
      H1   -10.06792   -5.64184   -3.10677
       H    -8.20027   -1.67807  -13.36202
       O    -9.03280   -1.87062  -12.95063
      H1    -8.91779   -1.80817  -12.00302
       H   -11.06574   -5.65998   -8.28958
       O   -11.48136   -5.20519   -7.56039
      H1   -10.86999   -5.10946   -6.79882
       H   -12.44811   -1.11861   -6.26437
       O   -13.02392   -1.29227   -5.49117
      H1   -12.71720   -0.82933   -4.71269
       H    -9.37883   -6.95748   -8.60702
       O    -9.96593   -6.76822   -9.39994
      H1    -9.33859   -6.59115  -10.12252
       H   -12.51534   -3.16624   -4.79982
       O   -11.89309   -3.67164   -4.18536
      H1   -12.40993   -4.46027   -3.98997
       H    -8.80376   -4.11291  -16.70238
       O    -9.45543   -3.94462  -16.00487
      H1    -9.91004   -4.75319  -15.76128
       H   -11.34008   -7.79158   -5.30088
       O   -10.45205   -8.09647   -5.00753
      H1   -10.23796   -7.32002   -4.50320
       H   -16.98458   -4.08449   -6.13343
       O   -17.62294   -3.99822   -5.39003
      H1   -16.99049   -4.38091   -4.79937
       H   -13.65563    1.65602  -10.29865
       O   -14.46166    1.71577  -10.85202
      H1   -14.46268    2.50963  -11.28018
       H   -17.58070   -6.77191   -8.50285
       O   -18.30301   -6.22388   -8.25829
      H1   -19.05840   -6.75667   -8.59962
       H   -16.25592   -1.66811  -12.29123
       O   -16.48181   -2.65864  -12.28689
      H1   -15.69929   -3.01280  -12.75033
       H    -6.98406   -2.06245   -5.89012
       O    -7.53694   -2.23583   -6.66767
      H1    -7.34133   -3.21884   -6.85712
       H    -7.63171   -4.99518   -8.94671
       O    -7.25408   -4.70019   -8.08786
      H1    -6.54741   -5.38184   -8.08342
       H    -4.89004   -0.96463  -12.16142
       O    -5.86324   -1.10891  -12.06432
      H1    -6.19269   -0.20593  -11.89513
       H    -9.69310  -10.53012   -7.97037
       O    -9.66035  -10.27080   -7.04147
      H1   -10.32300   -9.59466   -7.03643
       H    -8.49718   -8.60590   -7.58825
       O    -8.54510   -7.66254   -7.26388
      H1    -9.06886   -7.78318   -6.40282
       H   -16.25547   -1.93769   -5.28190
       O   -15.73129   -1.34999   -4.77555
      H1   -14.84215   -1.62420   -5.13047
       H    -5.09778   -4.18768  -12.42469
       O    -4.18934   -4.28835  -12.71312
      H1    -3.91353   -5.10652  -12.22208
       H   -15.26192   -3.23534   -7.77606
       O   -15.46427   -3.59162   -6.84386
      H1   -14.72533   -4.25964   -6.77686
       H   -17.49990   -2.41995   -9.49131
       O   -17.09359   -1.56601   -9.22880
      H1   -17.63447   -1.32370   -8.45659
       H   -17.03727    0.58284  -12.40289
       O   -16.07941    0.29463  -12.60143
      H1   -15.56597    0.84616  -11.95948
       H    -9.91057   -2.45749  -10.05942
       O    -9.13919   -1.91247  -10.12346
      H1    -8.43042   -2.59414  -10.14776
       H   -10.63391   -0.25454   -8.04515
       O   -10.66201   -1.01694   -7.39612
      H1    -9.98105   -1.66643   -7.75220
       H   -11.12009    0.44626  -12.85452
       O   -10.28095    0.90798  -12.66327
      H1    -9.68623    0.12589  -12.51324
       H   -11.67200   -8.30975  -13.52162
       O   -10.70688   -8.22380  -13.71840
      H1   -10.78652   -7.42829  -14.26835
       H   -13.40997    0.60234  -13.02832
       O   -12.83789    0.01550  -13.51684
      H1   -12.92823   -0.79734  -13.02419
       H   -10.99030   -5.23341  -14.42180
       O   -11.23859   -5.87951  -15.08581
      H1   -12.12745   -5.57550  -15.30844
       H    -9.79205    1.86225   -5.81859
       O    -9.54686    1.47362   -6.62672
      H1    -9.72971    0.54567   -6.37100
       H   -13.53724  -10.13646  -13.23531
       O   -13.29472   -9.21432  -13.01730
      H1   -13.03090   -9.25713  -12.10623
       H   -10.08498    2.35177  -10.16543
       O    -9.29047    2.88523  -10.15571
      H1    -8.79638    2.44234   -9.50530
       H   -13.50701   -6.45147   -6.47818
       O   -14.32611   -6.15302   -6.18734
      H1   -14.90420   -6.82111   -6.57843
       H   -11.31775   -2.81031  -15.23791
       O   -11.85229   -2.11679  -14.78675
      H1   -11.16775   -1.43733  -14.56195
       H    -9.07205   -3.52357   -6.04021
       O    -9.79450   -4.09499   -5.85042
      H1   -10.32102   -3.45619   -5.34522
       H   -14.98941   -3.47236  -10.03893
       O   -14.65086   -2.75402   -9.53070
      H1   -15.41901   -2.11884   -9.60288
       H   -17.40677   -6.52933  -13.77498
       O   -17.13190   -6.60739  -12.80005
      H1   -16.32264   -6.04569  -12.90582
       H    -6.37396   -3.12561  -10.12890
       O    -6.80603   -3.51943  -10.90784
      H1    -6.55812   -2.82251  -11.57246
       H    -7.57162   -6.28524  -11.69059
       O    -8.31423   -5.70542  -11.38080
      H1    -7.94025   -4.78970  -11.23660
       H   -15.40685   -7.32708   -9.44286
       O   -14.51978   -7.00005   -9.08757
      H1   -13.96231   -7.70888   -9.36514
       H   -10.84609  -10.09731  -10.47623
       O   -10.46403   -9.83291   -9.62094
      H1   -10.45122   -8.88296   -9.70031
       H   -15.88274    1.85340   -9.63384
       O   -16.38221    2.34965   -8.99794
      H1   -15.98852    2.05597   -8.16014
       H   -15.42202   -0.39139  -14.25213
       O   -15.13775   -0.84812  -15.05505
      H1   -14.18626   -0.75523  -14.99914
       H   -17.89227   -4.78168   -9.62215
       O   -17.78360   -4.13539  -10.29022
      H1   -16.96376   -4.37590  -10.67793
       H   -13.99847  -10.03025   -9.25913
       O   -13.81495   -9.95023  -10.21710
      H1   -14.47354  -10.46091  -10.67042

