180
frame 6 | Written by MDAnalysis XYZWriter (release 2.4.3)
       H    16.54848    4.06348    4.92664
       O    15.85693    4.79589    4.82393
      H1    15.05141    4.31338    4.91953
       H    12.08526    4.15394    8.97863
       O    12.38613    3.76638    8.16660
      H1    12.77763    4.52302    7.64461
       H    17.96853   12.63963    3.83244
       O    17.95324   13.27417    4.55769
      H1    17.13033   13.00629    5.04826
       H    15.32491   11.31871    5.52237
       O    15.55825   12.29930    5.60055
      H1    14.77675   12.67064    5.13233
       H    16.53675    2.09155    9.74659
       O    17.18956    2.09168   10.43159
      H1    17.48790    1.16195   10.42706
       H    19.04214   11.46148    1.95672
       O    18.38933   10.84310    1.51482
      H1    18.25876   10.24059    2.32967
       H    16.69880    7.61074    5.94113
       O    15.83197    7.26344    5.78355
      H1    16.03876    6.31960    5.51846
       H    13.54289    6.24935   10.77052
       O    14.37311    5.75656   10.62660
      H1    14.04095    4.92276   10.34792
       H     8.90431    8.72670    6.19798
       O     9.56974    8.15221    6.55672
      H1     9.32829    8.10401    7.44573
       H    15.68172   -0.16794    9.13473
       O    15.33748   -0.14578    8.19387
      H1    15.13955    0.83028    8.15981
       H    15.62273   10.29238   -0.36210
       O    16.47435    9.77458   -0.45943
      H1    17.15342   10.36940   -0.07387
       H    16.56464   14.06292    2.31136
       O    16.82314   14.89396    2.79324
      H1    17.42574   14.50114    3.46223
       H    16.11394    7.92722   -0.18453
       O    15.91798    7.02273    0.12819
      H1    16.81412    6.65327    0.30524
       H    17.44323    6.54356    2.27611
       O    18.19183    6.03202    1.91780
      H1    18.21810    5.24470    2.50856
       H    14.10156    2.81716    8.88487
       O    15.05180    2.97346    8.67307
      H1    15.04212    3.56408    7.95436
       H    15.14043    6.62507   11.93968
       O    15.86120    6.86844   12.63214
      H1    15.75970    6.08701   13.19926
       H    16.11310    8.85641   12.55597
       O    16.47821    9.70763   12.41952
      H1    17.41097    9.49016   12.54419
       H    14.54889   12.82713   11.95082
       O    13.90426   12.92694   11.27116
      H1    14.43721   12.80935   10.43237
       H    15.63012   12.11747    1.77198
       O    16.35225   12.57800    1.31134
      H1    17.09194   11.93269    1.18520
       H    13.00494   10.01399   11.77552
       O    12.33292    9.56478   11.26186
      H1    12.10704   10.19499   10.56279
       H    11.34919    5.30120   11.17592
       O    11.20221    4.76798   10.37258
      H1    10.73995    3.99587   10.74493
       H    19.17122    6.84851    4.57761
       O    18.57559    6.56290    5.32131
      H1    18.42255    5.58260    5.27279
       H    11.95249    6.70715    3.82892
       O    12.87264    6.80308    4.12781
      H1    13.17231    7.21200    3.32779
       H    12.76202    6.93003   12.76503
       O    11.94299    6.96629   12.24106
      H1    11.98887    7.87227   11.89914
       H    15.06160    2.62056    1.52281
       O    15.68525    3.00965    2.15258
      H1    15.96721    2.33692    2.80885
       H    15.25893    9.08572    2.02562
       O    14.55816    9.78941    1.83819
      H1    14.06900    9.31501    1.11184
       H    11.85241    5.22774    0.04017
       O    11.19460    5.35107    0.72959
      H1    11.31776    4.57280    1.25974
       H    10.96499    3.93553    5.07831
       O    11.33121    4.00745    4.14669
      H1    12.02368    3.33486    4.15538
       H    10.15607    5.26284    7.28621
       O     9.93046    4.66090    6.49002
      H1    10.37883    3.85027    6.74295
       H    17.57543    3.44393    7.01904
       O    17.67257    2.98898    6.18095
      H1    18.44492    2.41210    6.43330
       H    10.37579   10.86393    2.45396
       O     9.89493   10.68612    3.26257
      H1    10.40430   10.06664    3.80385
       H    14.50371    4.43842    2.46509
       O    13.63354    4.89374    2.49912
      H1    13.63121    5.32862    3.33224
       H    13.41840    9.53273    5.19351
       O    14.32187    9.70206    5.64097
      H1    14.86379    8.84611    5.49169
       H    18.74705    3.13378    3.30751
       O    18.88535    3.90773    3.91134
      H1    18.63903    3.45205    4.74693
       H    10.47983    6.69616    1.59255
       O    10.42927    7.41766    2.26277
      H1     9.53453    7.85124    2.08086
       H    14.62210    5.90036    0.17317
       O    13.92260    5.32962   -0.12810
      H1    13.52913    5.32197    0.78604
       H    10.81721    1.23171    6.33066
       O    11.15855    2.12501    6.32478
      H1    11.75806    2.18129    7.06005
       H    19.50381    1.78420    1.50566
       O    18.91957    1.82532    2.31461
      H1    19.38435    1.13499    2.80904
       H    16.52234   14.63362   11.28433
       O    16.56247   13.71921   11.65316
      H1    16.92894   13.23045   10.92358
       H    12.78488   12.36310    2.15779
       O    13.78050   12.31769    2.34639
      H1    13.88700   11.36248    2.34811
       H    11.30470    2.65200    2.41110
       O    12.06694    2.78013    1.77510
      H1    12.56006    3.58232    2.18307
       H    14.37520    6.22088    6.68017
       O    13.59431    5.67067    6.71689
      H1    13.35654    5.84308    5.80630
       H    10.71455    8.60414    5.35840
       O    11.29271    9.09454    4.67426
      H1    11.28066    8.38497    3.96503
       H    19.14504   10.40189   -0.31049
       O    19.46364   10.86964   -1.11497
      H1    18.75570   11.00388   -1.75261
       H    12.57024    8.33369   -0.61873
       O    13.46792    8.46325   -0.19288
      H1    13.86015    7.61806   -0.37279
       H    13.86429   11.92288    8.06485
       O    13.26018   11.11413    7.96650
      H1    13.69990   10.65704    7.26438
       H    11.97213   12.33375    6.51745
       O    11.57487   13.17955    6.36478
      H1    12.18038   13.68493    6.90460
       H    12.68210    1.39246    5.15095
       O    13.23585    1.68261    4.40005
      H1    12.86302    1.20061    3.65788
       H    12.79437   13.56850    4.85822
       O    13.45229   14.04409    4.35897
      H1    13.50381   13.39033    3.59940
       H    15.62983   12.86416    7.44759
       O    15.24991   13.19374    8.24228
      H1    14.71950   13.90061    7.90533
       H    18.28667    7.39379    8.40593
       O    18.65757    8.03216    7.75781
      H1    18.82924    7.39494    7.03716
       H    18.32902   13.56078    8.94791
       O    18.60953   12.94207    9.59917
      H1    19.16851   12.39883    8.99009
       H    19.33102    2.61042   12.36124
       O    18.67438    3.18123   12.77105
      H1    17.99082    3.18958   12.08089
       H    17.83623    5.18271    8.55407
       O    18.25752    4.34992    8.37215
      H1    18.04748    3.80789    9.11089
       H    17.13010    6.61306   10.57313
       O    17.23510    6.59225    9.56699
      H1    16.30633    6.23984    9.34087
       H    10.82304   12.39555    9.99579
       O    10.69511   11.57810    9.37281
      H1    11.55676   11.62530    8.87460
       H    14.94347    1.24049    4.19338
       O    15.88031    1.07582    4.18879
      H1    16.04729    0.83343    5.10315
       H    16.40478    8.10475    4.07715
       O    16.72187    8.21320    3.18945
      H1    17.67155    8.45134    3.32697
       H    19.33714    8.14392   12.33734
       O    19.27026    9.12690   12.63354
      H1    19.80325    9.52588   11.91597
       H    17.38483    1.80167    0.67393
       O    17.00762    1.51849   -0.18260
      H1    17.16469    2.29834   -0.75534

