180
frame 128 | Written by MDAnalysis XYZWriter (release 2.4.3)
       H   -14.50284   -6.78317   -4.79880
       O   -14.69346   -7.31627   -4.03559
      H1   -13.98234   -7.06092   -3.46027
       H   -15.41237   -5.43793   -0.08463
       O   -15.35673   -6.41025   -0.21510
      H1   -14.48821   -6.66535   -0.56142
       H   -16.51472   -4.87915   -3.50631
       O   -17.08312   -5.46958   -3.00608
      H1   -16.43009   -6.06916   -2.59822
       H   -13.09816  -17.33092   -1.32414
       O   -13.45314  -18.16433   -1.74698
      H1   -13.91825  -18.53589   -1.00554
       H   -10.94144  -12.47404   -0.32252
       O   -11.80084  -11.96450   -0.52930
      H1   -11.64673  -11.76240   -1.47868
       H   -16.39118  -10.20100   -9.48230
       O   -17.04601   -9.42536   -9.50365
      H1   -16.70292   -8.83653   -8.79133
       H    -9.71840  -10.25852   -4.39806
       O   -10.70634   -9.94094   -4.46193
      H1   -10.73251   -9.40621   -3.63717
       H   -18.76042  -17.46194   -2.46581
       O   -18.92978  -17.22905   -1.49369
      H1   -18.38603  -17.79133   -0.92925
       H   -16.00454  -18.39439    4.17436
       O   -16.20539  -17.53720    3.72672
      H1   -15.25240  -17.33333    3.39116
       H   -18.28340   -7.97782    1.16167
       O   -18.18466   -7.24870    0.53780
      H1   -17.26944   -7.08443    0.46799
       H   -15.53827  -14.40473   -1.07409
       O   -14.61037  -14.20192   -0.83059
      H1   -14.39189  -13.54398   -1.49394
       H   -18.97332  -18.96629    2.33436
       O   -19.51693  -18.23318    2.04882
      H1   -18.81273  -17.60811    1.67779
       H   -17.00275   -6.66724   -5.64214
       O   -17.22430   -6.18737   -6.50229
      H1   -18.15433   -6.33928   -6.40569
       H   -16.74412   -9.97727   -4.19946
       O   -17.57517  -10.30492   -3.87342
      H1   -17.66432   -9.89415   -3.01401
       H   -14.23801  -10.48290   -5.46401
       O   -14.65716  -10.14466   -4.68586
      H1   -14.39439   -9.20363   -4.66283
       H   -16.26477  -18.33861   -2.13380
       O   -16.74788  -18.94485   -1.54814
      H1   -17.09871  -19.59146   -2.18167
       H   -10.22457  -15.55805   -7.86686
       O   -10.83654  -15.20032   -7.17694
      H1   -11.50513  -15.89034   -7.05276
       H   -19.43496   -4.41939   -1.37298
       O   -18.52957   -3.99933   -1.31330
      H1   -18.03017   -4.60393   -1.90486
       H   -17.10490  -10.68896   -0.43389
       O   -18.02195  -11.09619   -0.48978
      H1   -18.42706  -10.90565    0.38452
       H   -16.47468  -12.57589   -6.44876
       O   -16.01247  -12.28748   -7.21539
      H1   -16.73948  -12.13071   -7.79656
       H   -12.37294  -10.99106   -6.42104
       O   -13.13290  -11.52753   -6.56511
      H1   -13.38157  -11.15632   -7.42268
       H   -13.09507  -13.68628    3.14932
       O   -12.32414  -14.19091    2.75480
      H1   -12.80469  -15.03174    2.53031
       H   -17.29338  -14.39374   -5.44852
       O   -17.18858  -13.56618   -4.91371
      H1   -17.91347  -12.99750   -5.28523
       H   -11.06244  -14.15151   -2.66995
       O   -11.99796  -14.16217   -2.86776
      H1   -12.23239  -13.25543   -3.09241
       H   -13.11259  -12.20653    0.68945
       O   -13.98983  -12.09409    1.03874
      H1   -14.33624  -12.85901    0.63292
       H   -15.67775  -16.37073   -2.08458
       O   -15.49365  -16.85380   -2.90102
      H1   -14.62157  -17.32681   -2.67322
       H   -19.87969  -17.09358   -4.18370
       O   -18.94062  -17.48355   -4.15071
      H1   -19.06485  -18.44644   -4.08044
       H   -15.02887   -6.82841    1.64159
       O   -14.69952   -7.21911    2.46007
      H1   -15.24551   -6.70372    3.05657
       H   -10.73595  -18.23050   -2.42239
       O   -10.24783  -17.38402   -2.60590
      H1   -10.89107  -17.00627   -3.17900
       H   -12.89372  -16.59319   -5.15206
       O   -12.42119  -16.63711   -4.31307
      H1   -12.53660  -15.76852   -3.95236
       H   -16.07767  -12.81453    4.80339
       O   -15.17671  -12.81256    4.51760
      H1   -15.19343  -12.20572    3.72879
       H   -19.28868   -9.60747   -0.93517
       O   -19.37412   -8.75885   -1.39008
      H1   -18.79652   -8.17388   -0.89976
       H   -12.31001  -10.09835    0.56550
       O   -11.74599   -9.70584    1.30770
      H1   -11.76159   -8.77309    1.11923
       H   -19.99438  -14.67546    1.46398
       O   -19.77745  -15.00233    2.31244
      H1   -18.90867  -15.36530    2.15556
       H   -19.78311  -13.74725    3.37422
       O   -19.49994  -13.23512    4.12696
      H1   -18.74656  -13.78249    4.42637
       H   -12.02230  -14.08711   -7.96895
       O   -12.54687  -13.84292   -8.77787
      H1   -12.09071  -14.46543   -9.38270
       H   -18.11008  -12.81975   -2.97337
       O   -18.07304  -13.17739   -2.13171
      H1   -17.95867  -12.37648   -1.58669
       H   -11.90841   -7.49899   -1.97230
       O   -12.75699   -7.09968   -1.66923
      H1   -12.55717   -6.17065   -1.92653
       H   -19.62021   -9.44073    1.95246
       O   -18.67623   -9.52731    1.95463
      H1   -18.46966   -9.44583    2.89174
       H   -13.99137   -9.88678   -9.81543
       O   -14.23514  -10.45858   -9.11478
      H1   -13.67906  -11.25005   -9.29856
       H   -13.83453   -5.38780   -6.88528
       O   -13.75643   -6.27688   -6.49690
      H1   -14.36582   -6.76751   -7.07632
       H   -13.29724  -10.75105   -3.54951
       O   -12.61708  -11.27705   -2.99391
      H1   -11.78134  -10.91561   -3.33889
       H   -15.21010   -9.13614    2.90830
       O   -15.08316  -10.12705    2.83821
      H1   -14.89475  -10.16109    1.88059
       H   -14.17189  -14.37375   -8.00469
       O   -14.85119  -14.75069   -7.43252
      H1   -15.35456  -13.89231   -7.34355
       H   -17.25845  -16.08465    4.70848
       O   -17.57275  -15.64133    5.49453
      H1   -17.73782  -16.35244    6.16702
       H   -18.89301  -17.50705   -5.87704
       O   -18.77709  -17.73531   -6.87086
      H1   -18.02997  -18.29307   -6.77648
       H   -14.68710  -11.40200   -0.47653
       O   -15.26328  -10.69245   -0.82927
      H1   -15.03761  -10.71932   -1.75788
       H   -16.60633  -16.34998   -4.44240
       O   -16.52650  -16.20748   -5.45668
      H1   -15.72701  -15.66846   -5.56284
       H   -17.95660  -13.69305   -8.98370
       O   -18.10226  -12.75147   -9.23160
      H1   -17.51685  -12.60455  -10.02204
       H   -13.32430  -17.74010   -6.92942
       O   -13.15542  -16.85846   -7.30775
      H1   -14.01432  -16.40722   -7.28948
       H   -13.60033  -10.37249    3.50266
       O   -12.92627  -10.42033    4.19031
      H1   -12.11654  -10.27433    3.69196
       H   -15.84870  -19.03939    0.17589
       O   -15.20469  -19.16874    0.91293
      H1   -15.26148  -20.16111    0.95162
       H   -19.30312   -8.17909   -3.31527
       O   -19.58701   -8.24779   -4.26913
      H1   -18.90524   -8.81641   -4.66031
       H   -17.57976  -15.94456    0.45778
       O   -17.58862  -16.47121    1.30014
      H1   -16.71311  -16.89160    1.26115
       H   -17.99855  -16.02551   -1.43842
       O   -17.22244  -15.41423   -1.20332
      H1   -17.49457  -14.64972   -1.75374
       H   -18.79045  -10.18434   -9.28469
       O   -19.72903  -10.29555   -8.98252
      H1   -19.97534  -11.19925   -9.30361
       H   -16.57202  -15.43751   -8.32550
       O   -17.49578  -15.23439   -8.21829
      H1   -17.67491  -15.90018   -7.55682
       H   -11.70601  -15.63633   -0.84093
       O   -12.59408  -15.93069   -0.59122
      H1   -13.16327  -15.24669   -0.98360
       H   -16.16153  -19.06825   -6.59547
       O   -16.56413  -18.95287   -5.71391
      H1   -16.46787  -17.99747   -5.56365
       H   -15.67081  -13.28537   -3.37633
       O   -14.83495  -12.85954   -3.26120
      H1   -14.48357  -12.62613   -4.12009

