180
frame 6 | Written by MDAnalysis XYZWriter (release 2.4.3)
       H    16.54848    4.06348    4.92664
       O    15.85693    4.79589    4.82393
      H1    15.05141    4.31338    4.91953
       H    16.43059   -0.87933   11.39272
       O    16.70111   -0.65720   10.49360
      H1    17.41384   -1.27363   10.31402
       H    12.08526    4.15394    8.97863
       O    12.38613    3.76638    8.16660
      H1    12.77763    4.52302    7.64461
       H    16.53675    2.09155    9.74659
       O    17.18956    2.09168   10.43159
      H1    17.48790    1.16195   10.42706
       H    19.04214   11.46148    1.95672
       O    18.38933   10.84310    1.51482
      H1    18.25876   10.24059    2.32967
       H    16.69880    7.61074    5.94113
       O    15.83197    7.26344    5.78355
      H1    16.03876    6.31960    5.51846
       H    13.54289    6.24935   10.77052
       O    14.37311    5.75656   10.62660
      H1    14.04095    4.92276   10.34792
       H    15.68172   -0.16794    9.13473
       O    15.33748   -0.14578    8.19387
      H1    15.13955    0.83028    8.15981
       H    13.84678    2.12689   -0.42641
       O    14.18750    1.46755    0.24164
      H1    15.08120    1.52665   -0.09476
       H    15.62273   10.29238   -0.36210
       O    16.47435    9.77458   -0.45943
      H1    17.15342   10.36940   -0.07387
       H    15.78393   -0.90474    4.29210
       O    15.46111   -1.83390    4.47190
      H1    15.85563   -2.30445    3.65730
       H    16.11394    7.92722   -0.18453
       O    15.91798    7.02273    0.12819
      H1    16.81412    6.65327    0.30524
       H    17.44323    6.54356    2.27611
       O    18.19183    6.03202    1.91780
      H1    18.21810    5.24470    2.50856
       H    14.10156    2.81716    8.88487
       O    15.05180    2.97346    8.67307
      H1    15.04212    3.56408    7.95436
       H    16.36946    0.63271   -1.61067
       O    15.92962    0.11235   -2.33169
      H1    15.23291    0.70825   -2.60783
       H    14.01042    3.87015   -1.12484
       O    13.67134    3.13994   -1.65103
      H1    12.87949    3.50659   -1.97143
       H    14.33640   -2.95410    1.81409
       O    14.93669   -2.28270    1.52638
      H1    14.59859   -2.08046    0.64772
       H    11.42093   -0.94982    5.68999
       O    10.56879   -0.61237    5.96215
      H1     9.99065   -0.53599    5.15880
       H    18.97355   -3.21989   -1.59011
       O    19.31123   -2.32867   -1.32244
      H1    18.83261   -1.70134   -1.92734
       H    13.04112   -1.58401   -1.52619
       O    13.92935   -1.70286   -1.07411
      H1    14.33529   -0.91336   -1.49074
       H    16.63079   -2.80073    1.03969
       O    17.60233   -2.97384    1.31693
      H1    18.16028   -2.67392    0.51999
       H    11.80744    0.72866   -0.74589
       O    11.27355    0.60713    0.07821
      H1    11.75376    1.25346    0.61781
       H    19.17122    6.84851    4.57761
       O    18.57559    6.56290    5.32131
      H1    18.42255    5.58260    5.27279
       H    11.95249    6.70715    3.82892
       O    12.87264    6.80308    4.12781
      H1    13.17231    7.21200    3.32779
       H    15.06160    2.62056    1.52281
       O    15.68525    3.00965    2.15258
      H1    15.96721    2.33692    2.80885
       H    15.25893    9.08572    2.02562
       O    14.55816    9.78941    1.83819
      H1    14.06900    9.31501    1.11184
       H    11.85241    5.22774    0.04017
       O    11.19460    5.35107    0.72959
      H1    11.31776    4.57280    1.25974
       H    10.96499    3.93553    5.07831
       O    11.33121    4.00745    4.14669
      H1    12.02368    3.33486    4.15538
       H    17.57543    3.44393    7.01904
       O    17.67257    2.98898    6.18095
      H1    18.44492    2.41210    6.43330
       H    14.91666    5.20625   -3.44251
       O    15.49808    4.48826   -3.27515
      H1    14.83928    3.84209   -2.99992
       H    14.50371    4.43842    2.46509
       O    13.63354    4.89374    2.49912
      H1    13.63121    5.32862    3.33224
       H    13.41840    9.53273    5.19351
       O    14.32187    9.70206    5.64097
      H1    14.86379    8.84611    5.49169
       H    16.82929    3.92930   -2.48406
       O    17.55789    3.41659   -2.08102
      H1    17.99567    3.17764   -2.86338
       H    18.27325   -2.76807    3.11082
       O    18.74176   -2.53654    3.92240
      H1    19.11901   -1.65782    3.71279
       H    10.83602   -1.50712    0.95940
       O    10.96404   -2.19423    1.60855
      H1    11.54169   -1.69695    2.24275
       H    18.74705    3.13378    3.30751
       O    18.88535    3.90773    3.91134
      H1    18.63903    3.45205    4.74693
       H    14.62210    5.90036    0.17317
       O    13.92260    5.32962   -0.12810
      H1    13.52913    5.32197    0.78604
       H    10.81721    1.23171    6.33066
       O    11.15855    2.12501    6.32478
      H1    11.75806    2.18129    7.06005
       H    19.50381    1.78420    1.50566
       O    18.91957    1.82532    2.31461
      H1    19.38435    1.13499    2.80904
       H    11.30470    2.65200    2.41110
       O    12.06694    2.78013    1.77510
      H1    12.56006    3.58232    2.18307
       H    14.37520    6.22088    6.68017
       O    13.59431    5.67067    6.71689
      H1    13.35654    5.84308    5.80630
       H    17.61604   -1.36603    5.61167
       O    17.45640   -0.61048    6.20000
      H1    16.69260   -0.83648    6.73765
       H    19.14504   10.40189   -0.31049
       O    19.46364   10.86964   -1.11497
      H1    18.75570   11.00388   -1.75261
       H    19.59071    3.55106   -4.86534
       O    19.03042    2.78234   -4.64689
      H1    19.68276    2.09515   -4.96091
       H    12.57024    8.33369   -0.61873
       O    13.46792    8.46325   -0.19288
      H1    13.86015    7.61806   -0.37279
       H    17.39731   -0.28198   -2.87072
       O    18.34728   -0.40521   -3.16365
      H1    18.26015   -0.31216   -4.10385
       H     9.90621    3.75831    3.13871
       O     9.29694    3.34681    2.50212
      H1     8.49621    3.24747    2.87965
       H    17.59620   -3.09877    9.78094
       O    18.40218   -2.47895    9.69162
      H1    18.67541   -2.39219   10.59745
       H    13.98074   -1.61147    5.43422
       O    13.20571   -1.46726    5.93931
      H1    13.41782   -1.80281    6.82920
       H    12.68210    1.39246    5.15095
       O    13.23585    1.68261    4.40005
      H1    12.86302    1.20061    3.65788
       H    18.28667    7.39379    8.40593
       O    18.65757    8.03216    7.75781
      H1    18.82924    7.39494    7.03716
       H    18.14050    5.17288   -1.96215
       O    18.64832    5.97494   -2.06414
      H1    19.29970    5.84163   -1.34961
       H    19.33102    2.61042   12.36124
       O    18.67438    3.18123   12.77105
      H1    17.99082    3.18958   12.08089
       H    17.83623    5.18271    8.55407
       O    18.25752    4.34992    8.37215
      H1    18.04748    3.80789    9.11089
       H    12.86204   -0.28621    1.42283
       O    12.94967   -0.25808    2.35564
      H1    13.86997   -0.47889    2.40955
       H    17.13010    6.61306   10.57313
       O    17.23510    6.59225    9.56699
      H1    16.30633    6.23984    9.34087
       H    14.94347    1.24049    4.19338
       O    15.88031    1.07582    4.18879
      H1    16.04729    0.83343    5.10315
       H    19.05668    8.33887   -4.42253
       O    18.15357    8.00336   -4.58363
      H1    18.10814    7.38943   -3.81114
       H    16.40478    8.10475    4.07715
       O    16.72187    8.21320    3.18945
      H1    17.67155    8.45134    3.32697
       H    17.38483    1.80167    0.67393
       O    17.00762    1.51849   -0.18260
      H1    17.16469    2.29834   -0.75534

