180
frame 6 | Written by MDAnalysis XYZWriter (release 2.4.3)
       H   -18.32241  -15.93133    7.54359
       O   -18.99940  -15.55678    6.96199
      H1   -18.64328  -14.65635    6.85657
       H   -17.41803   -2.38873    6.33759
       O   -17.05398   -1.59363    6.81851
      H1   -17.79437   -1.43615    7.45295
       H   -15.77079   -6.72485    1.60685
       O   -15.58133   -5.98359    2.16559
      H1   -14.97404   -6.45630    2.78308
       H   -18.26390    0.63241   11.04743
       O   -18.80227    1.21807   10.45256
      H1   -17.99108    1.72650   10.17986
       H   -14.43631  -10.47575   10.47433
       O   -14.27875  -10.23852    9.55792
      H1   -13.82592   -9.41419    9.70206
       H   -11.26104   -2.07155    8.44609
       O   -11.43900   -2.47353    7.57305
      H1   -10.50719   -2.79102    7.41550
       H   -16.60510   -3.40903   -0.57859
       O   -16.92049   -3.09191   -1.39129
      H1   -17.88763   -2.88546   -1.26774
       H   -14.26820   -7.34154    4.99891
       O   -14.78979   -6.50849    4.87541
      H1   -15.32477   -6.50623    5.66659
       H   -19.97555    0.58475    6.04446
       O   -19.28485    1.25145    5.89540
      H1   -18.69169    1.21783    6.67806
       H   -16.97735   -3.47332    4.75545
       O   -17.92264   -3.48828    5.10179
      H1   -18.29073   -3.14504    4.30373
       H   -11.81837   -6.13098    7.90204
       O   -11.02356   -6.60447    8.30081
      H1   -10.36336   -5.99291    7.98517
       H   -16.42153  -13.63093    7.72041
       O   -17.35690  -13.40830    7.75365
      H1   -17.28094  -12.52966    7.28036
       H   -19.36746   -5.79577    6.97806
       O   -19.22729   -6.71324    6.80256
      H1   -19.22889   -6.69725    5.81190
       H   -19.16174   -3.64627    6.58346
       O   -19.05990   -3.77422    7.53005
      H1   -19.72206   -3.16583    8.01321
       H   -18.78942   -5.19703   10.12093
       O   -18.76534   -4.71188   10.96869
      H1   -18.68371   -5.44870   11.58440
       H   -17.09436  -10.13570    7.87324
       O   -17.34149  -10.63210    7.10474
      H1   -17.77834   -9.87130    6.57854
       H   -11.35112   -5.75422   11.30547
       O   -10.96119   -6.63210   11.12159
      H1   -11.03356   -6.54753   10.13166
       H   -16.02323   -9.74492    1.29734
       O   -15.47151   -8.95043    1.07295
      H1   -15.00356   -9.17405    0.23461
       H   -19.45826   -9.18929   10.90158
       O   -18.78305   -9.88663   10.86801
      H1   -18.55791  -10.11688   11.83055
       H   -16.45770  -11.92560   11.20890
       O   -15.84964  -11.30153   11.65116
      H1   -16.39018  -11.05808   12.40886
       H   -15.33229   -3.00209    2.06808
       O   -14.91744   -2.62317    1.28618
      H1   -15.33466   -1.76504    1.23450
       H   -16.12387   -9.99523    5.72043
       O   -15.67521   -9.41876    5.15486
      H1   -15.60895   -9.94731    4.33272
       H   -17.46839   -9.15037    9.50223
       O   -16.64385   -8.98961    9.03019
      H1   -15.96320   -9.65756    9.32021
       H   -16.88103   -6.18040    7.51930
       O   -15.89272   -6.23115    7.53688
      H1   -15.69540   -5.35915    7.92123
       H   -18.87390   -7.74874   12.80687
       O   -18.22184   -7.05139   12.95778
      H1   -17.42110   -7.40174   12.50784
       H   -18.03394  -10.14226   -1.02143
       O   -18.50760  -10.97042   -1.00790
      H1   -19.13720  -10.80896   -1.71588
       H   -17.13620  -14.39668   11.03072
       O   -16.52794  -13.88774   10.45752
      H1   -17.01784  -13.72964    9.62550
       H   -17.49866  -11.57794    1.11369
       O   -16.81634  -11.39739    1.77317
      H1   -17.40845  -11.40662    2.57969
       H   -14.10205   -9.16455    7.30700
       O   -13.76995   -8.23513    7.41484
      H1   -14.68760   -7.81336    7.41534
       H   -18.25955   -5.41951    3.69102
       O   -18.27870   -5.38480    2.70541
      H1   -17.36060   -5.50246    2.52743
       H   -15.44902   -2.61393   13.33751
       O   -14.84762   -3.08835   12.82188
      H1   -14.58141   -3.87394   13.37090
       H   -18.75274    0.13891    4.50545
       O   -18.80177   -0.34598    3.63764
      H1   -17.87007   -0.69289    3.67414
       H   -13.24066   -6.16302   14.45629
       O   -14.00150   -5.52791   14.28834
      H1   -14.73969   -6.20821   14.07552
       H   -12.24382  -11.45899    6.18110
       O   -12.47353  -12.18088    5.57251
      H1   -11.60669  -12.34945    5.15533
       H   -14.70450  -12.98207    5.45127
       O   -15.39015  -13.62276    5.14162
      H1   -15.99547  -13.00199    4.62213
       H   -12.19374   -7.68541    2.67563
       O   -12.37773   -7.18060    1.85451
      H1   -12.97418   -7.74953    1.34958
       H   -12.04880   -4.10081    6.69418
       O   -12.07811   -4.85840    6.16702
      H1   -13.00632   -4.89347    5.90568
       H   -13.51037   -2.06432    2.87333
       O   -12.83661   -1.33456    3.02596
      H1   -12.88232   -0.83400    2.16397
       H   -17.81833   -7.74817   -0.84357
       O   -16.90940   -7.51745   -0.83551
      H1   -16.49651   -8.09893   -0.17854
       H   -11.67327   -5.71787    3.30457
       O   -11.36921   -4.89861    3.64591
      H1   -11.55698   -5.01578    4.58747
       H   -17.65458   -7.48172    2.78530
       O   -17.58126   -8.38898    3.14785
      H1   -16.84610   -8.43041    3.81515
       H   -18.84273   -5.04608   -2.44439
       O   -19.65403   -5.19269   -1.93924
      H1   -19.28671   -5.61199   -1.13648
       H   -18.36737   -1.35060   11.74567
       O   -19.11986   -1.93385   12.07671
      H1   -18.81363   -2.81381   11.84720
       H   -19.00152   -8.18247   -2.85727
       O   -19.36282   -8.00614   -1.96654
      H1   -19.65697   -7.06955   -2.11458
       H   -15.74585    0.85074    7.85529
       O   -15.42699    0.80569    8.75410
      H1   -14.66881    0.17678    8.72633
       H   -18.71248    0.16773    9.05583
       O   -18.81614   -0.42662    8.26612
      H1   -19.25232   -1.18651    8.70222
       H   -13.47798   -0.97225    9.88297
       O   -13.28715   -0.69197    8.98783
      H1   -13.29899   -1.50566    8.49745
       H   -17.86975  -13.12645    3.61942
       O   -17.94046  -12.26848    4.09672
      H1   -18.78804  -12.33292    4.58835
       H   -12.39765   -9.17071    5.32334
       O   -12.60653   -8.73868    4.45181
      H1   -12.80220   -9.58438    4.03399
       H   -18.19088  -11.26174   14.04622
       O   -17.94867  -10.49153   13.48621
      H1   -17.57224   -9.91022   14.19221
       H   -13.48315  -11.38064    2.65923
       O   -14.12805  -10.71454    2.98974
      H1   -14.35473  -10.10105    2.28222
       H   -14.82512   -3.87245    4.72682
       O   -14.93123   -3.82245    3.73731
      H1   -15.11509   -4.73176    3.59788
       H   -12.08356   -9.09145    7.29565
       O   -11.69535   -9.84388    6.81308
      H1   -10.82216   -9.89577    7.30150
       H   -14.99957   -4.38096   11.59433
       O   -14.98510   -5.01513   10.81764
      H1   -14.14553   -4.61675   10.35997
       H   -15.36986   -2.61826    6.80530
       O   -14.48308   -2.70237    6.47049
      H1   -14.35111   -1.75696    6.14166
       H   -16.53116   -4.13305    9.65581
       O   -16.51995   -3.77194    8.73281
      H1   -17.35678   -4.03956    8.31582
       H   -14.16955  -13.38362    1.37246
       O   -15.05340  -13.27187    0.84136
      H1   -15.56034  -12.75896    1.48957
       H   -15.85828   -6.01626   15.62467
       O   -16.17906   -6.80033   15.14607
      H1   -16.97792   -6.47412   14.69351
       H   -15.47821   -6.59266   10.99135
       O   -15.91338   -7.44825   11.17076
      H1   -16.18763   -7.73125   10.30653
       H   -16.05166    0.24829    4.05753
       O   -16.20402   -0.63401    4.24086
      H1   -16.49486   -0.64572    5.15627

