180
frame 11 | Written by MDAnalysis XYZWriter (release 2.4.3)
       H    -4.91015   18.58347   -8.29488
       O    -3.94603   18.63256   -8.09056
      H1    -3.97905   19.05948   -7.21238
       H   -17.94604   14.85930   -5.08039
       O   -17.72597   14.08322   -4.49629
      H1   -18.07442   14.19337   -3.57316
       H    -4.06282   16.00964   -4.81159
       O    -3.34042   15.34189   -4.92332
      H1    -3.45909   14.78647   -4.10246
       H    -4.82680   11.83119   -7.02090
       O    -4.46118   12.67879   -6.77157
      H1    -5.13058   13.11309   -6.21804
       H   -12.14148   19.82967   -4.73777
       O   -12.55384   19.02513   -4.41122
      H1   -13.48878   19.31612   -4.23575
       H    -5.51352   17.57290   -5.24170
       O    -5.60137   16.74211   -4.68875
      H1    -5.68560   16.05340   -5.36093
       H   -15.70806   18.48469   -9.97692
       O   -14.87541   18.01295  -10.09070
      H1   -15.08781   17.08324   -9.76772
       H   -13.09894   18.33862  -10.77382
       O   -12.10246   18.31422  -10.85884
      H1   -11.90230   18.76549  -11.70571
       H    -7.14398   17.65271   -2.11325
       O    -6.63794   18.19471   -1.50471
      H1    -7.17609   18.99840   -1.37582
       H   -15.12486   12.03039   -5.25029
       O   -15.26668   12.91029   -4.84530
      H1   -16.23921   12.92614   -4.71883
       H    -9.86758   16.33069    1.25132
       O    -8.94073   16.64331    1.26578
      H1    -8.40740   15.87715    0.91312
       H   -14.73359   14.79955   -5.14940
       O   -14.75539   15.66249   -5.57181
      H1   -15.59785   15.96891   -5.42709
       H   -10.02027   10.64847   -7.58817
       O    -9.58731   10.23953   -6.85468
      H1    -9.62176    9.29598   -6.96671
       H   -17.68172   17.34955   -6.61270
       O   -17.42386   16.91448   -5.73751
      H1   -17.37207   17.70681   -5.15252
       H   -12.32620   19.50876    2.76507
       O   -12.21784   18.73219    2.20058
      H1   -11.78820   19.11622    1.42604
       H    -8.53480   16.08407   -3.02725
       O    -8.06066   16.88881   -3.42904
      H1    -7.20245   16.47294   -3.65293
       H   -18.78434   16.35824   -0.36627
       O   -18.84680   17.31154   -0.24511
      H1   -19.61642   17.32269    0.33561
       H   -12.89384   12.22987   -1.62656
       O   -12.34284   12.09272   -0.86395
      H1   -12.80064   11.29852   -0.50061
       H   -11.30178   10.81418    1.82646
       O   -10.56494   11.34688    1.49978
      H1   -11.00439   11.86815    0.79467
       H   -11.21546   10.19972   -5.50913
       O   -12.09659   10.60224   -5.61668
      H1   -12.25956   10.70863   -6.53941
       H   -13.52713   18.22584    1.15433
       O   -14.17545   17.66753    0.70417
      H1   -14.62969   18.24487    0.12164
       H    -9.17052   14.86735   -7.16403
       O    -9.05172   13.97120   -6.94322
      H1    -9.72428   13.81122   -6.28425
       H   -15.43001   11.38865   -1.70755
       O   -15.97396   12.17567   -1.83152
      H1   -16.84594   11.79156   -1.65010
       H    -8.72405   17.21774   -7.59778
       O    -8.77867   16.41786   -8.06360
      H1    -9.52030   16.59631   -8.68128
       H    -7.00908   12.30644   -4.11276
       O    -6.12261   12.50203   -3.68094
      H1    -5.81439   11.61084   -3.93465
       H   -13.30145   15.68003   -4.23718
       O   -12.72181   15.08282   -3.68119
      H1   -11.95662   15.68356   -3.60943
       H    -9.26332   18.40474   -0.92534
       O   -10.00625   17.82721   -0.97932
      H1    -9.82667   17.08904   -0.27584
       H   -15.53577   15.13095   -0.79049
       O   -16.43226   15.30703   -0.49618
      H1   -16.24953   15.94810    0.22040
       H    -7.14225   14.48860   -5.97229
       O    -6.27520   14.26973   -5.64092
      H1    -6.42415   13.72146   -4.85331
       H   -12.92945   15.91582    3.20447
       O   -13.19786   16.58200    3.80770
      H1   -13.02113   17.40289    3.31210
       H    -7.98884   15.92492   -9.71759
       O    -7.38508   15.81315  -10.43914
      H1    -7.90563   16.16217  -11.20614
       H   -11.93043   17.10599   -7.21047
       O   -11.45289   17.75407   -6.67454
      H1   -12.10558   18.09792   -6.04116
       H    -8.33127   14.20494   -1.17257
       O    -8.85677   14.50985   -1.92294
      H1    -9.17895   13.69137   -2.28891
       H    -9.11219   15.29211    4.49772
       O    -8.45636   15.19745    3.76169
      H1    -8.74386   15.93694    3.10855
       H    -4.86381   18.44238   -1.80469
       O    -3.97895   18.75503   -1.63104
      H1    -3.51489   18.32042   -0.87337
       H   -11.18129   15.66238   -9.46644
       O   -10.62410   16.37688   -9.93103
      H1   -11.31974   17.01653  -10.13882
       H    -9.08966   12.72059   -9.87734
       O    -8.94702   12.27072   -9.04394
      H1    -8.95326   12.98557   -8.36017
       H   -16.36240   13.94923    0.51616
       O   -16.64013   13.26980    1.20348
      H1   -15.78211   13.12067    1.58835
       H    -9.01317   11.04678   -5.27152
       O    -8.57338   11.54212   -4.52709
      H1    -9.18567   11.43249   -3.77365
       H   -17.15530   18.89991    1.64718
       O   -17.10842   17.95634    2.07776
      H1   -17.85081   17.55039    1.62996
       H   -13.94804   16.32397   -0.53402
       O   -13.85126   15.32735   -0.68586
      H1   -13.62526   15.23893   -1.65135
       H   -11.60662   15.60842   -0.33717
       O   -10.90910   15.00382   -0.02092
      H1   -10.34419   14.92258   -0.80062
       H   -15.94637   12.59588   -8.83970
       O   -15.32417   13.25757   -9.22589
      H1   -14.57333   13.41547   -8.55484
       H   -13.98212   12.18926   -3.65083
       O   -13.29053   11.54464   -3.35810
      H1   -12.96527   11.18761   -4.27516
       H   -12.25827   13.29425   -6.94724
       O   -12.98344   13.07782   -7.60699
      H1   -12.49165   13.09074   -8.44721
       H   -16.00632   15.06234   -9.06494
       O   -16.24818   15.94033   -8.72288
      H1   -16.62269   15.86054   -7.83794
       H    -6.01308   17.82250    0.16752
       O    -5.59579   17.66411    1.05089
      H1    -5.22633   16.79670    1.00482
       H   -13.71275   13.68342    2.75122
       O   -14.34134   12.94717    2.68497
      H1   -14.74135   12.83155    3.59329
       H    -6.89191   18.69998   -6.35528
       O    -5.92540   18.84861   -6.19879
      H1    -5.99132   19.48588   -5.50243
       H   -13.21236   15.12535   -7.70353
       O   -13.21872   16.08638   -7.90610
      H1   -13.95106   16.32899   -7.30116
       H   -10.68298   18.42496    3.16259
       O    -9.86564   18.70293    3.58483
      H1   -10.22355   18.40350    4.44393
       H   -17.61880   17.71832   -2.01680
       O   -16.87565   18.14816   -2.41854
      H1   -16.64334   17.55020   -3.13494
       H    -7.20573   13.34797    0.62891
       O    -7.44901   14.30571    0.37149
      H1    -6.61902   14.60287   -0.01898
       H   -11.59033   14.44820    1.45575
       O   -12.06034   14.52047    2.29611
      H1   -11.48520   13.94441    2.91084
       H   -19.34653   13.87750   -1.89779
       O   -18.95427   14.75441   -1.94753
      H1   -18.05636   14.59837   -1.70213
       H   -10.93568   10.91723   -1.81245
       O   -10.32539   10.48688   -2.44928
      H1    -9.52866   10.43737   -1.95422
       H   -11.47645   17.79774   -3.86512
       O   -10.99161   17.05095   -3.45349
      H1   -10.63067   17.49759   -2.72250
       H   -11.95962   13.91235   -4.78852
       O   -11.45579   13.41182   -5.46467
      H1   -11.37489   12.54962   -4.99884
       H    -6.70951   17.90640    2.47365
       O    -6.98089   18.04899    3.37978
      H1    -7.97264   18.11364    3.32371
       H    -8.60637   17.73564   -5.05119
       O    -8.68636   18.25237   -5.91227
      H1    -9.65050   18.12419   -6.06380

