180
frame 12 | Written by MDAnalysis XYZWriter (release 2.4.3)
       H    -5.60521  -10.68083  -18.04122
       O    -6.24259  -10.93182  -18.79346
      H1    -5.61920  -11.05832  -19.49379
       H   -16.21573    1.06206  -18.97918
       O   -15.61226    0.30222  -18.90494
      H1   -15.80974   -0.12802  -19.78229
       H    -9.36113   -8.29334  -17.05818
       O   -10.22407   -8.00014  -17.49441
      H1   -10.05157   -7.04329  -17.62335
       H    -7.16296   -0.04939  -18.39209
       O    -7.66510   -0.35250  -17.56463
      H1    -8.46641   -0.66630  -18.00726
       H   -12.17962  -14.89906  -14.08632
       O   -11.82641  -15.36002  -14.81219
      H1   -12.35957  -16.14816  -14.77120
       H   -17.45293   -4.34587  -14.28809
       O   -17.82567   -4.02919  -15.14352
      H1   -18.59535   -3.59674  -14.80521
       H   -13.32217   -7.05205  -12.40017
       O   -12.75082   -7.80273  -12.33093
      H1   -12.35316   -7.74158  -13.22600
       H   -13.07745   -1.81752  -13.72488
       O   -13.43959   -1.00207  -14.15788
      H1   -14.39048   -1.22060  -14.33007
       H    -9.02481  -11.78200  -12.37489
       O    -8.49092  -11.42704  -13.03933
      H1    -7.89404  -12.19406  -13.24514
       H    -6.81501   -9.88554  -13.43871
       O    -6.00716  -10.12274  -13.86527
      H1    -5.32379   -9.94602  -13.20382
       H    -6.57779   -3.16838  -15.54803
       O    -5.88890   -3.29891  -16.22822
      H1    -5.48720   -2.38900  -16.20639
       H    -9.05070   -6.96515  -14.21202
       O    -9.46387   -7.13205  -13.32121
      H1   -10.26719   -7.60191  -13.63168
       H   -11.77859   -6.60984  -11.38814
       O   -11.51527   -5.81078  -10.94143
      H1   -12.08892   -5.76721  -10.12953
       H   -16.29937   -3.92363  -18.30306
       O   -16.43450   -4.88397  -18.62043
      H1   -15.85264   -5.38039  -18.01111
       H    -9.73980   -5.13977  -12.05527
       O    -9.06715   -4.40228  -11.90481
      H1    -9.09439   -4.25922  -10.98141
       H   -10.36347   -9.53696  -18.23421
       O   -10.58733  -10.43655  -18.59696
      H1   -11.54373  -10.30171  -18.60868
       H   -18.58472  -15.76293  -19.10894
       O   -18.98916  -14.89763  -19.01280
      H1   -19.17995  -14.70132  -19.95608
       H    -9.30776  -11.69941  -18.07494
       O    -8.67895  -12.04007  -17.40539
      H1    -8.13027  -12.45407  -18.03331
       H    -8.38927   -8.20135  -12.30926
       O    -7.68601   -8.84255  -11.95818
      H1    -8.25180   -9.55279  -11.74998
       H   -17.39468  -12.32607  -13.37364
       O   -16.70179  -12.66576  -12.70381
      H1   -16.09135  -13.16840  -13.22857
       H   -16.30516   -1.47116  -18.34164
       O   -16.43977   -2.25156  -17.69110
      H1   -16.31502   -1.75559  -16.84281
       H   -17.50438  -12.57321  -16.07687
       O   -16.80741  -13.07200  -15.65717
      H1   -16.47060  -13.53380  -16.47229
       H    -9.28355   -4.58919  -15.94692
       O    -9.12133   -5.49221  -15.72858
      H1    -8.34819   -5.58425  -16.25696
       H   -16.19607  -11.27020  -15.35521
       O   -15.92641  -10.34756  -15.32911
      H1   -15.92735  -10.14496  -14.34283
       H   -11.38824  -11.07277  -11.80047
       O   -12.00857  -10.98341  -12.54415
      H1   -12.40203  -10.14191  -12.28203
       H   -18.07835   -7.58882  -11.68781
       O   -17.96611   -6.67967  -11.96833
      H1   -18.80447   -6.27169  -11.80649
       H   -13.87041   -8.93826  -11.32774
       O   -14.48591   -9.39562  -10.69376
      H1   -13.78507   -9.55397  -10.03084
       H    -8.31501  -14.05807  -15.25489
       O    -8.96119  -14.64026  -15.67523
      H1    -9.49469  -13.90635  -16.02630
       H   -12.66891  -13.43031  -18.01748
       O   -13.38752  -13.27160  -18.62195
      H1   -13.73093  -12.43864  -18.25894
       H   -15.54624  -16.23323  -17.55816
       O   -15.85505  -17.13045  -17.46763
      H1   -14.92038  -17.45826  -17.48104
       H   -18.44936   -2.00098  -16.92967
       O   -19.41407   -1.70136  -16.78610
      H1   -19.82439   -2.52218  -17.05319
       H   -11.34014  -11.47970  -13.97512
       O   -10.94806  -11.67817  -14.86437
      H1    -9.96188  -11.72345  -14.67234
       H   -12.83113  -13.00778  -12.98129
       O   -12.36889  -13.83831  -12.72413
      H1   -11.70783  -13.46829  -12.09614
       H   -16.59225  -16.04017  -14.76935
       O   -15.99876  -15.36668  -14.45032
      H1   -16.42207  -14.62470  -14.96363
       H   -13.45975   -8.14932  -18.61061
       O   -13.74799   -7.64040  -19.33357
      H1   -14.58886   -7.31173  -19.01795
       H   -12.79507   -0.40833  -16.00949
       O   -12.33723    0.07528  -16.67907
      H1   -12.46237   -0.47245  -17.46669
       H   -16.04575   -3.74140  -12.77050
       O   -15.72808   -4.26539  -13.52911
      H1   -14.78716   -4.02294  -13.65146
       H    -8.17314  -10.58459  -16.82362
       O    -8.24746   -9.64737  -16.58891
      H1    -7.46134   -9.61532  -16.00741
       H   -12.62492   -9.08951  -16.85219
       O   -13.25872   -9.51372  -17.43805
      H1   -13.87377   -9.74821  -16.73585
       H    -8.38959   -3.32446  -19.02699
       O    -8.81088   -3.21401  -18.18807
      H1    -8.05411   -2.84239  -17.73080
       H    -3.90532  -10.23374  -15.93472
       O    -4.72540  -10.57393  -16.18709
      H1    -5.30446  -10.47801  -15.39225
       H   -15.77925   -9.49381  -12.14749
       O   -16.50961   -9.57546  -12.76349
      H1   -16.66961  -10.56738  -12.60396
       H   -18.47999   -5.04953  -18.98977
       O   -19.20904   -5.57655  -19.43229
      H1   -19.98398   -5.21165  -19.04790
       H   -17.85562   -9.12238  -17.59932
       O   -18.44465   -9.75964  -17.98575
      H1   -18.65866  -10.32018  -17.26028
       H   -16.55387   -8.88332  -16.22826
       O   -16.56180   -8.15467  -16.89000
      H1   -15.82847   -7.61261  -16.60327
       H   -12.60275   -3.99547  -12.50210
       O   -13.06345   -3.62254  -13.24246
      H1   -12.67527   -4.27358  -13.88196
       H   -15.48397   -5.42225  -15.91494
       O   -14.83366   -5.99604  -16.42163
      H1   -13.96435   -5.78444  -16.03614
       H   -10.90556   -2.41993  -16.72854
       O   -10.87831   -3.06228  -15.98419
      H1   -10.58375   -2.56249  -15.20963
       H   -10.91363  -12.89901  -16.18783
       O   -11.12825  -13.51927  -16.91340
      H1   -11.46261  -14.30887  -16.47094
       H   -18.78573   -6.42062  -13.66546
       O   -19.30328   -6.38853  -14.43592
      H1   -18.88333   -5.77077  -15.03629
       H   -15.09396  -10.88760  -19.04136
       O   -15.55342  -11.44812  -18.44620
      H1   -16.36231  -11.02550  -18.09240
       H   -12.09904   -4.51993  -15.91550
       O   -12.50547   -5.23813  -15.39625
      H1   -11.78436   -5.88199  -15.26728
       H   -14.38047   -5.68942  -10.32032
       O   -13.93881   -5.34236   -9.52015
      H1   -13.94302   -6.24876   -9.05853
       H   -16.49965  -14.45420  -18.73405
       O   -15.85203  -14.42065  -18.00195
      H1   -15.12286  -14.03735  -18.54518
       H   -11.24726   -5.28108  -19.17546
       O   -10.55035   -5.49465  -18.49665
      H1   -10.15220   -4.57718  -18.47095
       H   -16.04599   -6.36406  -11.28320
       O   -15.27179   -6.17220  -11.75914
      H1   -15.57768   -5.47616  -12.37019
       H   -19.38916  -10.62055  -15.19536
       O   -18.99286  -11.32924  -15.72674
      H1   -19.70722  -11.86388  -16.00930
       H    -6.13525   -7.21725  -15.56086
       O    -6.88961   -7.23668  -16.16621
      H1    -6.45879   -7.38082  -16.95229
       H   -16.60496   -2.35425  -14.63055
       O   -16.03033   -1.57991  -14.61500
      H1   -16.69162   -0.92558  -14.45870
       H   -10.99187   -9.61125  -15.03941
       O   -11.41188   -8.68410  -14.97109
      H1   -10.90707   -8.30399  -15.69492

