180
frame 0 | Written by MDAnalysis XYZWriter (release 2.4.3)
       H    -0.63364    2.57496   13.37749
       O    -1.39253    3.07256   13.01404
      H1    -1.48231    2.78437   12.08651
       H     6.51710   13.27345   13.18577
       O     6.24050   12.61813   13.82809
      H1     7.11426   12.22297   14.00660
       H    -4.07670    7.92914   10.38081
       O    -3.27594    8.03196    9.81813
      H1    -3.12199    9.01161    9.81924
       H     4.52416    4.73678   12.36447
       O     4.77920    4.09314   11.70218
      H1     4.39055    3.30714   12.07741
       H     5.55583    8.66749   14.77563
       O     5.63453    7.96194   15.43357
      H1     5.54419    7.12344   14.94698
       H    -2.82794    4.86554   18.10749
       O    -2.65998    4.82976   17.13634
      H1    -1.97139    4.11651   17.05285
       H    -0.25258    3.28256   16.07645
       O    -0.84846    2.97468   16.78529
      H1    -1.33347    2.17413   16.42161
       H     0.21800   10.53150   14.08619
       O    -0.03594   11.12445   13.32462
      H1     0.64367   11.01650   12.68795
       H    -2.94060   10.62744   12.52779
       O    -2.26842    9.86946   12.38968
      H1    -1.46243   10.38308   12.61634
       H     2.42900    9.63162   13.75483
       O     3.16504   10.13609   13.39699
      H1     3.34536   10.80387   14.03839
       H     3.71172    9.74069   17.41824
       O     4.17656   10.56957   17.48771
      H1     3.59338   11.14668   16.98175
       H     4.81776    4.40822    9.91234
       O     4.81484    4.76261    8.99999
      H1     4.07924    4.21477    8.61856
       H     2.85710   13.19841   13.43937
       O     3.01722   14.10282   13.14265
      H1     3.11230   14.06110   12.16617
       H    -3.11791    7.41884   18.54011
       O    -2.81237    7.23270   19.42734
      H1    -3.20286    6.33917   19.39099
       H     3.16644    7.99045   10.10936
       O     3.49649    8.69827   10.69629
      H1     3.19692    8.30524   11.53473
       H    -2.40860    4.58384    8.75785
       O    -2.99980    4.05380    8.16920
      H1    -3.79485    4.63956    8.11987
       H    -0.12356   12.05045    8.30511
       O    -0.70556   11.93038    9.10796
      H1     0.04532   11.63632    9.59393
       H    -0.44399    3.50829    9.53550
       O     0.06311    3.01400    8.90483
      H1     0.93160    3.38526    8.74965
       H     2.73238    6.33938   12.02093
       O     3.24004    6.78379   12.73443
      H1     2.59047    7.40241   13.04184
       H    -1.03596   15.14646   15.95428
       O    -0.09958   15.20004   15.77383
      H1    -0.15717   14.65532   14.94102
       H     0.60441    5.13057   11.30430
       O     1.48856    5.02458   11.73245
      H1     1.52727    4.16658   12.13307
       H     4.35157    5.01416   15.15686
       O     3.65556    4.58368   15.72103
      H1     4.17749    4.10352   16.34427
       H    -0.37441    6.31858   15.90275
       O    -0.41506    6.37992   14.90703
      H1    -1.33477    6.43281   14.58814
       H     7.32529    8.41903   13.35752
       O     7.92422    7.67887   13.15672
      H1     8.51266    7.78485   13.88524
       H     1.18827   10.97154   16.86735
       O     0.90374   10.20228   16.33278
      H1     1.63825    9.58246   16.54791
       H     0.67555    4.84757   14.35062
       O     0.98870    4.00322   14.70844
      H1     1.94026    4.24734   14.88361
       H    -1.59266    8.22093   10.27321
       O    -0.68249    7.92179   10.52056
      H1    -0.42787    7.46881    9.68339
       H     3.38714    6.27993   19.56859
       O     2.51402    6.78463   19.33615
      H1     2.69143    7.66530   19.80514
       H     6.34980    8.64475    9.25904
       O     5.69946    9.23064    8.91218
      H1     4.94460    9.32120    9.61671
       H    -0.96277    6.99026   18.39952
       O    -0.23902    6.80647   17.83232
      H1     0.25803    6.09863   18.24488
       H     2.61137    7.54515   17.79082
       O     2.86438    8.15464   17.09525
      H1     3.56892    7.68414   16.67552
       H     2.83399   12.35863    7.78476
       O     2.01896   11.85877    7.90721
      H1     1.90678   11.59130    6.92761
       H    -5.08541    9.82696   11.77536
       O    -5.02866    8.88343   11.81342
      H1    -4.13505    8.71412   12.08551
       H    -3.60893   12.45747   11.53490
       O    -4.13620   11.86920   12.08113
      H1    -4.18597   12.21958   13.01425
       H    -4.07164   12.77621   15.86822
       O    -3.76947   12.20244   15.09360
      H1    -3.44124   11.36788   15.40857
       H    -1.88718   13.05478    9.92378
       O    -2.49700   13.44510   10.58011
      H1    -2.48326   14.37994   10.27042
       H    -3.84531    5.60885   13.15909
       O    -4.26188    5.23862   12.37911
      H1    -5.10379    5.73772   12.36105
       H     7.87033   10.04683   15.29788
       O     8.08051    9.14881   15.72784
      H1     7.48201    8.44557   15.46112
       H     1.73348   13.18648   10.43245
       O     1.73446   14.13152   10.42617
      H1     1.32925   14.37924    9.53692
       H    -3.49497    1.89875   15.04065
       O    -3.33827    2.15261   15.94104
      H1    -3.26901    3.10761   15.83983
       H     0.55284    1.44970   11.26115
       O     0.59433    0.88813   10.45270
      H1     0.44405    1.62649    9.75734
       H    -1.95191   13.90994   12.81978
       O    -1.68588   14.77316   13.16319
      H1    -2.54623   15.07564   13.49098
       H     0.46784    7.51666    7.24084
       O    -0.24582    6.88295    7.19363
      H1    -1.00147    7.44466    6.93014
       H    -0.67187    9.47007   17.91737
       O    -0.52981    9.51518   18.86578
      H1    -0.10396    8.64317   19.00866
       H     4.81845    7.87306    8.24925
       O     3.92503    7.53562    8.06844
      H1     4.18412    6.59819    7.98975
       H    -2.86222    5.70767   15.45916
       O    -3.15746    6.26353   14.69781
      H1    -3.87737    6.81265   15.15951
       H     5.97077   11.78856   10.67017
       O     6.90347   11.88794   10.78508
      H1     7.09993   11.86086    9.81065
       H    -2.35301   11.25207    9.14397
       O    -3.05279   10.62016    9.01248
      H1    -3.73893   11.18398    8.69530
       H     2.38342   12.63570   16.14753
       O     3.11401   12.38306   15.61604
      H1     3.70413   13.16805   15.61996
       H    -2.27997    5.09027   10.88980
       O    -1.46685    5.34885   10.46069
      H1    -1.43624    6.32860   10.59150
       H    -2.32473    9.43716    7.49810
       O    -2.26588    8.81224    6.81199
      H1    -1.66781    9.29743    6.14571
       H     1.32833   12.95335   18.23295
       O     0.82577   12.74014   17.40199
      H1     0.66128   13.63473   16.97927
       H     0.24599    7.95180   12.59574
       O     0.91493    8.18019   13.24430
      H1     0.50792    7.71936   14.06772
       H    -2.36484    9.54762   14.34783
       O    -2.22803    9.58828   15.32047
      H1    -1.31402    9.73759   15.37554
       H     6.35764    4.99251   15.19465
       O     6.14172    5.53713   14.39149
      H1     6.97234    5.54131   13.84435
       H     2.66960    8.21035    6.80550
       O     2.18702    7.96482    6.03285
      H1     2.07014    8.90828    5.66168
       H    -3.17727    8.55162   16.55331
       O    -3.93621    8.08225   17.00539
      H1    -4.75046    8.69452   16.91007
       H     4.97495    9.38547   12.82586
       O     5.86816    9.58895   13.11116
      H1     5.72647   10.48901   13.45702
       H     2.54624    1.96100   12.78215
       O     1.66449    2.39348   12.57371
      H1     1.43508    2.82049   13.47053
       H     2.47854   10.25051   10.29713
       O     1.99684   11.08568   10.45924
      H1     2.19362   11.43457    9.59874

