180
frame 6 | Written by MDAnalysis XYZWriter (release 2.4.3)
       H     3.41635   13.19299   16.09209
       O     4.11246   13.42082   16.73997
      H1     4.93636   13.09121   16.26340
       H    -0.82731    9.16774    9.32679
       O    -1.50430    9.71332    8.89003
      H1    -2.30741    9.42545    9.19708
       H    -4.40767    4.15094   11.89628
       O    -5.24948    3.86856   12.18343
      H1    -5.06494    2.88252   12.28482
       H     4.55750   11.38093   16.81522
       O     4.38423   10.44046   16.71155
      H1     5.07085   10.03191   17.23756
       H    -7.85093   13.14784   14.67109
       O    -8.04224   12.91783   15.64405
      H1    -8.69385   13.52664   15.85631
       H    -9.20630   10.47470   14.10032
       O    -9.64111   10.91310   14.82394
      H1    -8.98943   11.51498   15.22335
       H     3.51671   12.68758   13.02318
       O     4.21810   12.10162   12.76550
      H1     4.08053   11.93796   11.84717
       H    -5.65303   15.57623   14.02643
       O    -6.32544   15.87689   14.59022
      H1    -7.07319   15.56081   14.05458
       H    -1.25345    3.89451   13.19615
       O    -1.36907    4.06708   14.12225
      H1    -0.74497    3.47170   14.59831
       H    -4.12658    3.49935   17.40901
       O    -3.26351    3.85429   17.61442
      H1    -3.00921    4.45585   16.92926
       H    -9.28436   13.96191   12.99651
       O    -8.30530   13.85741   13.10390
      H1    -7.98281   13.17883   12.45331
       H     3.68291    6.27195   16.54804
       O     4.27881    6.84985   16.00772
      H1     3.72325    7.07639   15.27392
       H    -4.36308   13.35769   19.23007
       O    -3.98427   12.65803   18.64950
      H1    -3.43574   12.12837   19.26900
       H     0.68811    5.91926    9.48538
       O     0.08573    5.56971   10.11692
      H1    -0.02036    6.27700   10.77969
       H    -4.66634    8.40107   10.02829
       O    -5.16687    7.93685    9.37782
      H1    -5.21310    8.59548    8.61564
       H     1.02694   14.29148   18.70269
       O     0.20174   14.68557   18.33225
      H1     0.28065   14.98037   17.40259
       H    -7.45744   10.99461   18.09809
       O    -8.42978   10.83124   18.34952
      H1    -8.45193   10.54185   19.24516
       H    -5.87437   11.72133   12.93866
       O    -6.66036   11.60946   12.36600
      H1    -6.30808   11.68483   11.44131
       H    -1.26638   11.91239    9.31482
       O    -0.80253   12.68029    9.58927
      H1    -0.93473   13.17802    8.76795
       H    -3.82626    6.31115   19.26932
       O    -3.54583    5.50851   19.66787
      H1    -3.38497    4.94655   18.91469
       H    -0.75315   10.34562   12.59681
       O    -1.44307    9.77732   12.94037
      H1    -1.54752   10.05292   13.91346
       H    -4.83681    9.82213   12.03974
       O    -4.08779    9.62720   11.48619
      H1    -3.29969    9.71622   12.07228
       H     2.33071    9.59794   14.52033
       O     2.03861    9.45162   15.46988
      H1     2.85238    9.50715   16.01513
       H    -7.85796    7.21001   14.74028
       O    -7.04005    7.35106   14.24323
      H1    -6.41545    7.66039   14.93005
       H    -0.80749   13.24680   17.63348
       O    -1.43616   12.55283   17.28497
      H1    -2.15900   12.56476   17.96670
       H    -0.46407   14.81895   15.27188
       O     0.17225   15.43083   15.67968
      H1    -0.30604   16.26147   15.83889
       H    -1.53706   12.53699   14.84721
       O    -0.88177   13.03189   14.36303
      H1    -0.71518   12.50564   13.57810
       H   -10.13724    9.72495   16.09566
       O   -10.39373    9.26772   16.89039
      H1    -9.75493    9.70977   17.48482
       H     0.49602   16.04613   11.53779
       O     1.25947   15.53255   11.82376
      H1     0.99579   14.61503   11.81293
       H     1.80260   16.58646   16.05609
       O     2.02404   17.27814   16.71288
      H1     2.55964   16.89842   17.45605
       H    -6.22639   15.09162   16.36197
       O    -5.47064   15.04645   16.97436
      H1    -4.68149   14.87758   16.45256
       H    -6.65467    5.29118   18.34534
       O    -7.17956    5.04813   19.08274
      H1    -7.00603    4.07273   19.22929
       H    -5.97108    5.33166   15.62850
       O    -5.55016    5.59320   16.44652
      H1    -4.69582    5.74309   16.12586
       H    -3.53104   15.52495   12.28136
       O    -3.68958   15.97043   13.11117
      H1    -3.06507   16.70815   13.05113
       H    -0.62968   17.72302   19.14128
       O    -1.20681   16.99844   18.88104
      H1    -0.59491   16.30831   18.81983
       H    -0.60089    5.96268   18.36624
       O    -0.48669    6.36195   17.47897
      H1    -0.09601    7.19475   17.58667
       H    -2.46602    6.23369   14.95094
       O    -2.68406    6.25579   15.90584
      H1    -1.84713    6.22678   16.39839
       H     0.84689    8.29055    9.27326
       O     0.53207    8.73809   10.09023
      H1     0.52997    8.21157   10.91019
       H     1.11632    5.88731   15.43682
       O     1.29981    6.30094   14.64654
      H1     1.70638    7.19934   14.87387
       H     1.26766   11.91433   11.97811
       O     0.31705   12.21625   12.10984
      H1     0.01019   12.32359   11.19178
       H     2.09198    4.96270   17.83754
       O     2.48545    4.94576   16.93164
      H1     2.35079    3.95287   16.76716
       H    -7.62926    8.71196   13.25123
       O    -8.19403    9.45163   12.86247
      H1    -7.56911   10.20456   12.94016
       H    -2.95706   11.04669   15.52830
       O    -2.32499   10.28432   15.57387
      H1    -1.60227   10.53507   16.14656
       H    -7.24555    5.58648   14.02473
       O    -7.29300    4.64427   13.72673
      H1    -6.44828    4.60770   13.23741
       H     2.97004    4.90681   11.75288
       O     3.14870    5.43144   12.57221
      H1     2.28792    5.55829   13.04518
       H    -7.92457    6.68908   11.30673
       O    -7.71329    6.93166   10.37780
      H1    -6.81237    7.26187   10.26793
       H    -2.40471   18.19943   16.17351
       O    -2.27633   17.24597   16.28286
      H1    -2.03131   17.16042   17.23456
       H    -4.72911   12.58294   14.49817
       O    -4.81140   11.61198   14.37142
      H1    -5.21696   11.26919   15.16714
       H    -6.21494   12.52255    9.47591
       O    -6.08778   11.55658    9.66484
      H1    -6.89217   11.09728    9.45102
       H     0.52836   10.29056   16.78569
       O    -0.19188   10.33477   17.37603
      H1    -0.46239   11.27770   17.30289
       H     0.13671    6.60726   13.23855
       O    -0.08697    7.10400   12.42194
      H1    -0.64340    7.79535   12.75872
       H    -9.67005   12.80845   20.23477
       O    -9.06325   13.24058   19.64253
      H1    -8.78605   12.50386   19.03623
       H    -2.62726   14.01084   16.00598
       O    -3.40094   14.19141   15.37013
      H1    -3.07074   14.90507   14.81439
       H     3.14141    9.30556   12.48474
       O     2.62893    9.95645   13.04294
      H1     3.35353   10.52785   13.31223
       H     2.54496   14.51657   14.44802
       O     2.35397   13.56153   14.32902
      H1     1.38205   13.58978   14.44868
       H    -5.44158   11.88489   17.48094
       O    -6.09806   11.40654   16.97368
      H1    -6.71942   12.10793   16.71079
       H     0.55716   11.53085    9.31789
       O     1.47234   11.29330    9.64552
      H1     1.34169   10.40938    9.91804
       H    -5.48188    9.90874   16.42565
       O    -5.12130    9.10535   15.95244
      H1    -4.18930    9.26542   15.83560
       H    -4.72870    8.35497   17.82767
       O    -4.47900    8.63394   18.72287
      H1    -5.21628    9.00755   19.18107
       H    -5.31828   15.26959   19.00721
       O    -4.90506   14.94866   19.82044
      H1    -5.61418   14.50897   20.31378

