180
frame 12 | Written by MDAnalysis XYZWriter (release 2.4.3)
       H     4.89624   16.30960   18.52002
       O     5.82859   15.90813   18.61862
      H1     5.93211   15.69698   17.66748
       H     8.45716    9.34397   12.97070
       O     7.75668    9.07173   12.38082
      H1     7.85814    8.15940   12.24290
       H    12.63922    8.42636   17.01932
       O    12.77591    9.36536   16.93467
      H1    13.72754    9.45428   17.12273
       H    14.24893    6.05273   18.20099
       O    14.67297    6.22429   19.08102
      H1    15.57239    6.50495   18.73733
       H    12.43985   13.02862   11.10994
       O    11.53038   13.17802   11.00874
      H1    11.14317   12.62277   11.65333
       H    10.93800   10.10891    9.51678
       O    10.46838    9.26487    9.65495
      H1     9.54830    9.45493    9.42658
       H    12.64574   13.47139   17.60389
       O    13.45434   13.64289   18.12825
      H1    13.46868   14.59127   18.21207
       H    14.47294    8.30267    9.61792
       O    15.10051    8.53791    8.88606
      H1    14.50924    8.43239    8.07152
       H     8.35586   10.93980   16.54614
       O     8.48036   11.64017   17.20399
      H1     8.17160   11.23344   18.03227
       H     3.95788   13.27594   17.05312
       O     4.70967   12.66685   17.07821
      H1     5.15295   12.94836   16.17730
       H     4.96016   12.63638    9.68954
       O     5.47427   12.68589   10.50501
      H1     5.29962   11.83122   10.91832
       H     4.95881    9.42838   10.31093
       O     5.41163    9.98261   10.95747
      H1     6.08418    9.36155   11.39688
       H    10.44512    4.62144   12.80577
       O     9.60486    4.87144   13.23436
      H1     9.89911    5.50811   13.91693
       H    14.71222    8.16161   13.35523
       O    14.52163    7.28290   13.45228
      H1    13.98873    7.17600   12.65828
       H    10.75541   18.99525   15.10380
       O    10.59045   18.33834   15.79393
      H1    11.34802   17.76843   15.70792
       H     5.80806    5.78887   12.37214
       O     5.60901    6.28653   11.57225
      H1     4.72122    5.92963   11.45516
       H    15.60984   10.35108   12.21668
       O    16.28819    9.74014   12.61312
      H1    17.05235    9.86026   12.05599
       H    15.16978    4.41034   14.61528
       O    14.31464    4.23930   15.04022
      H1    14.11805    5.04384   15.50838
       H    10.19475    7.60271   15.54430
       O    11.00097    7.61772   15.01788
      H1    11.22249    8.49755   14.94804
       H    15.62762   13.82477   12.10829
       O    14.64851   13.89160   12.38293
      H1    14.44562   14.66565   11.85889
       H     9.41354   10.95728   14.01360
       O     9.55395   10.45330   14.86176
      H1    10.36250   10.94639   15.09469
       H    13.93387    7.07917   15.34868
       O    13.48015    6.64821   16.15102
      H1    12.58997    6.80721   15.78553
       H    13.31088   11.46726   13.04949
       O    13.67445   10.89211   12.29859
      H1    13.86616   11.58582   11.64574
       H    12.55416   16.30474   10.36500
       O    11.63106   16.06560   10.57370
      H1    11.61054   15.17842   10.94335
       H     9.92035   16.40350   11.42537
       O     8.96006   16.59707   11.30943
      H1     8.96460   17.59085   11.35147
       H    10.93339   15.08058   15.83547
       O    11.12904   14.74340   14.90023
      H1    10.26113   15.02948   14.47972
       H     9.02799    5.89733   11.64365
       O     8.81704    6.65556   11.02883
      H1     9.67028    7.07976   10.89702
       H    12.26576    8.80389   10.42551
       O    13.01645    8.60281   11.00121
      H1    13.28169    9.48400   11.33596
       H     8.38173   14.33964   13.40384
       O     8.67816   15.21518   13.81714
      H1     8.67937   15.79531   12.98620
       H    13.75373   16.64461   17.65186
       O    13.73615   16.23773   18.57229
      H1    14.62829   16.14798   18.94655
       H    12.84231    3.63546   13.31408
       O    12.23469    4.04339   12.69436
      H1    12.19457    3.54480   11.88078
       H     5.79362    7.25188   17.10121
       O     6.44285    6.75129   17.68833
      H1     7.19037    6.62831   17.01366
       H    16.14582    9.05155   17.72432
       O    15.66260    9.73209   17.20419
      H1    16.15180    9.72045   16.36745
       H    11.30347   10.95776   17.54446
       O    11.33778   11.83175   17.89611
      H1    10.41546   12.07424   17.78722
       H     4.99053   14.31070   19.29472
       O     5.30659   13.40193   19.42737
      H1     5.09427   12.98697   18.56460
       H     9.65343   17.58686   19.14514
       O     9.77655   18.24262   18.47304
      H1    10.06914   17.76805   17.66030
       H    16.52518   11.62687   17.86576
       O    16.62292   12.55513   18.06129
      H1    17.57522   12.48862   18.35759
       H     9.30152   15.34831   17.22596
       O    10.14182   15.49662   17.64355
      H1    10.18475   14.73372   18.26914
       H     3.46687   10.32596   13.70086
       O     3.66681    9.36347   13.62257
      H1     4.18632    9.45866   12.81252
       H    16.97429   10.60843   14.20416
       O    17.00157   11.08720   15.04683
      H1    16.17026   11.59072   15.12658
       H     9.21294    3.64340   14.52708
       O     9.00752    2.86415   15.11591
      H1     9.29197    3.18666   15.95292
       H     5.65721   16.23348   15.28457
       O     5.60713   15.48408   15.88946
      H1     6.54704   15.26659   16.11494
       H    14.12623   18.11056   15.93494
       O    13.44682   17.39272   15.88573
      H1    13.88573   16.76522   15.30950
       H    10.36465    4.03850   17.96435
       O     9.82436    3.28625   17.76170
      H1     8.91005    3.65450   17.95426
       H     4.55148   12.75959   14.12094
       O     5.50585   12.86731   14.39878
      H1     5.66125   13.80968   14.26464
       H    11.53733   12.96110   14.89606
       O    12.02205   12.11521   14.85974
      H1    12.97507   12.36216   15.02833
       H    14.82055   11.76330    9.23050
       O    14.29090   11.09156    9.63745
      H1    14.62170   10.30864    9.17945
       H    16.80722   15.04469   19.35106
       O    16.45441   15.26184   18.45439
      H1    16.45469   14.35633   18.10176
       H     2.91374    9.50140   17.87708
       O     2.83279   10.45336   18.20247
      H1     3.67216   10.81390   17.84761
       H     7.11356   13.49516   10.34630
       O     8.09248   13.71259   10.43092
      H1     8.29145   14.02497    9.53386
       H     6.09304   15.76896    8.92601
       O     6.24583   15.85670    9.88163
      H1     7.16685   15.53180   10.01022
       H     7.84996   11.11834    8.92503
       O     7.87241   10.20063    9.18476
      H1     7.47792   10.22556   10.06349
       H    14.27384   13.24141   16.44203
       O    14.73095   12.90202   15.63774
      H1    15.09131   13.74400   15.15257
       H    14.62541   14.90967   13.81410
       O    14.94603   15.41324   14.59762
      H1    15.86814   15.66460   14.31780
       H     7.75315   13.15101   12.20820
       O     7.95848   12.83745   13.07388
      H1     7.14457   12.46723   13.42742
       H     5.84086    4.18858   14.58707
       O     6.65916    4.24590   14.06461
      H1     7.29903    4.12266   14.75712
       H    11.40956   12.15250    8.90168
       O    11.74183   11.28309    8.47828
      H1    12.68526   11.28810    8.74316
       H     8.16113   14.41889   15.59345
       O     8.01978   14.31438   16.53817
      H1     7.83979   13.34870   16.61172
       H     9.14217    8.47224   17.95086
       O     9.12925    7.90686   17.15552
      H1     9.46596    7.09245   17.57889
       H    10.77385    5.34202   19.64160
       O    10.86760    5.72832   18.73022
      H1    11.53310    6.43787   18.83283

