180
frame 8 | Written by MDAnalysis XYZWriter (release 2.4.3)
       H    -4.85950   -6.94998   -9.65521
       O    -5.81231   -7.03318   -9.66656
      H1    -6.00980   -6.25176   -9.10683
       H   -15.97925   -6.73544   -2.41123
       O   -16.15637   -6.62612   -3.37450
      H1   -17.12795   -6.61458   -3.35541
       H   -11.67847   -3.60710   -3.85082
       O   -12.11282   -3.09127   -3.16562
      H1   -12.93564   -2.90591   -3.64937
       H   -11.46672   -6.40549   -1.70246
       O   -11.78201   -7.22224   -2.13013
      H1   -10.92361   -7.71647   -2.23681
       H    -7.53594   -7.20839   -4.92996
       O    -7.13786   -8.04139   -5.30523
      H1    -7.17319   -7.78388   -6.23291
       H    -9.93879   -3.86608   -5.56793
       O   -10.90809   -3.94301   -5.64103
      H1   -10.99027   -4.81979   -6.13091
       H   -12.89200   -9.13058  -10.23314
       O   -12.92266   -8.77329  -11.13248
      H1   -13.89552   -8.85817  -11.33592
       H    -9.48938   -6.54320   -9.41637
       O    -9.70049   -5.63205   -9.69078
      H1   -10.62078   -5.64772   -9.96141
       H   -13.14038   -4.02319   -9.43505
       O   -12.36810   -3.41887   -9.49814
      H1   -12.32952   -2.96808   -8.65794
       H   -12.30943   -7.04605  -11.52534
       O   -12.21999   -6.10208  -11.43468
      H1   -13.03724   -5.76755  -11.83156
       H   -16.16461   -4.73879   -8.68239
       O   -16.91811   -4.23339   -8.41406
      H1   -16.57971   -3.59872   -7.78079
       H    -9.63997   -6.03523  -12.42446
       O    -9.07205   -5.25940  -12.19299
      H1    -9.05744   -5.26505  -11.17593
       H   -10.24424   -6.14898   -7.77374
       O   -10.92755   -6.36949   -7.07443
      H1   -10.44343   -7.03869   -6.47832
       H   -17.81886   -7.20798   -8.82296
       O   -18.65687   -7.46268   -9.26013
      H1   -18.91714   -8.33622   -8.96024
       H   -14.26996   -1.14891   -5.90592
       O   -14.19291   -0.73400   -6.80006
      H1   -13.42432   -1.29527   -7.01693
       H   -12.19009   -3.55035  -11.30908
       O   -12.58681   -3.47202  -12.20744
      H1   -11.85709   -3.83885  -12.77882
       H   -13.65084   -8.18198   -1.50798
       O   -14.30397   -8.74476   -1.98046
      H1   -13.68589   -9.48182   -2.04694
       H    -9.03704  -10.34804   -5.60959
       O    -9.80828  -10.28681   -6.28761
      H1   -10.43371  -10.96136   -5.98139
       H   -17.82198   -5.47591   -7.40559
       O   -18.30262   -6.08115   -6.80580
      H1   -19.24648   -5.80937   -7.03082
       H   -18.05289   -2.52899   -5.57376
       O   -18.47525   -2.96117   -4.81410
      H1   -17.76347   -3.36419   -4.32910
       H   -12.88029   -7.96736   -3.57975
       O   -12.88854   -8.28100   -4.50988
      H1   -13.81343   -8.17875   -4.71953
       H   -15.83203   -2.42935  -10.77207
       O   -16.52024   -3.06738  -10.74386
      H1   -16.66975   -3.26297   -9.77115
       H    -7.53968  -10.95954   -4.04165
       O    -7.31138  -10.76330   -4.94744
      H1    -7.08407   -9.80701   -4.88143
       H    -9.27981   -1.37458   -2.98293
       O    -8.77983   -1.44922   -3.79786
      H1    -7.92797   -1.04818   -3.57494
       H   -17.18648  -10.61478   -6.39412
       O   -16.67203  -10.47818   -5.61009
      H1   -17.28630  -10.22635   -4.90384
       H   -10.71916  -11.19189  -12.62809
       O   -11.44917  -10.64197  -12.80519
      H1   -11.32416   -9.87714  -12.20021
       H   -17.11959   -8.45379  -11.61453
       O   -17.40828   -7.54086  -11.64094
      H1   -17.88196   -7.40018  -10.76268
       H   -16.09619   -9.27386   -8.43062
       O   -15.93141   -8.34242   -8.28457
      H1   -16.14211   -8.22298   -7.28241
       H   -12.70903  -10.70523   -8.37943
       O   -12.32734  -10.67676   -9.26991
      H1   -11.37786  -10.54880   -9.11198
       H   -13.08498  -11.47574  -12.12629
       O   -13.59907  -12.22069  -11.64255
      H1   -13.45619  -11.86033  -10.72304
       H    -8.75750  -11.21855   -7.52401
       O    -7.97912  -11.48726   -8.15633
      H1    -7.48060  -10.64632   -8.02622
       H   -16.97787   -1.46373   -7.54417
       O   -16.51627   -2.06683   -6.87461
      H1   -15.56404   -1.71401   -6.90855
       H    -9.27927   -8.62426   -2.15827
       O    -9.92171   -9.34920   -2.41885
      H1    -9.87897   -9.25752   -3.41452
       H   -11.88851  -12.59108   -4.84639
       O   -11.46872  -12.44036   -5.76943
      H1   -12.21773  -12.00813   -6.29527
       H   -14.25827   -0.61046  -10.93032
       O   -14.60224   -0.94123  -10.06210
      H1   -13.84647   -1.48126   -9.80811
       H   -11.12117   -7.82328   -4.79176
       O   -10.22693   -7.84285   -5.11615
      H1   -10.18048   -8.73443   -5.54960
       H    -9.93415   -0.06564   -5.39683
       O    -9.70680    0.11076   -6.34342
      H1   -10.30435    0.85742   -6.45247
       H    -8.38986   -2.58782   -8.61648
       O    -8.91098   -3.32851   -8.22287
      H1    -8.99517   -3.94461   -8.93823
       H    -9.19828   -6.04832   -1.73485
       O    -8.69417   -6.86016   -1.56463
      H1    -8.06981   -6.53196   -0.87335
       H   -11.34068   -2.55897   -6.70307
       O   -11.81380   -1.86174   -7.18652
      H1   -11.09477   -1.17243   -7.17520
       H    -9.52439   -9.31437  -11.30348
       O    -9.83740   -9.91224  -10.58136
      H1    -9.92575  -10.81193  -11.07084
       H   -15.50325   -2.82208  -13.59109
       O   -15.22783   -3.73346  -13.59628
      H1   -14.41160   -3.63733  -13.03684
       H    -7.11311   -4.32334   -7.79392
       O    -6.43501   -4.92911   -8.05539
      H1    -5.60979   -4.39397   -7.98125
       H    -8.98541   -8.90691   -8.98200
       O    -8.71503   -8.04551   -8.85347
      H1    -7.71057   -8.08502   -8.87716
       H   -17.60173   -4.65780   -1.73254
       O   -18.59889   -4.66773   -1.63994
      H1   -18.74331   -5.14843   -0.78803
       H   -19.22222   -7.25482   -4.27208
       O   -18.99182   -6.98422   -3.36176
      H1   -19.25010   -6.06559   -3.33558
       H   -14.89579   -1.00209   -3.61364
       O   -14.34567   -1.66060   -4.03628
      H1   -14.84139   -2.52094   -3.96237
       H   -12.78664   -6.09545   -6.71965
       O   -13.76900   -6.12328   -6.76899
      H1   -14.00813   -7.02611   -6.98838
       H   -11.24545   -4.16973   -1.54514
       O   -10.80583   -4.90140   -1.13093
      H1   -10.99853   -4.68274   -0.22895
       H   -17.42064   -8.70053   -2.67950
       O   -17.20779   -9.60396   -2.80948
      H1   -16.28814   -9.70118   -2.57465
       H   -14.00056  -10.97672   -6.11000
       O   -13.37121  -10.59724   -6.77948
      H1   -13.25040   -9.75625   -6.37447
       H   -19.40163  -11.26972   -6.86976
       O   -19.37139  -10.46698   -7.44539
      H1   -19.13848   -9.82104   -6.76976
       H    -8.29534   -2.74067   -4.83363
       O    -8.03963   -3.48757   -5.45101
      H1    -8.47282   -3.25354   -6.38482
       H   -15.56334   -5.03795   -3.34087
       O   -15.86583   -4.15748   -3.10975
      H1   -15.58595   -4.11893   -2.16351
       H   -10.97587   -1.42861   -1.18818
       O   -11.64277   -0.93917   -1.75551
      H1   -11.83879   -1.68659   -2.32943
       H   -14.32662   -5.83713   -9.94481
       O   -14.37741   -5.19861   -9.20244
      H1   -13.98940   -5.68594   -8.40832
       H   -15.53206   -7.69333   -4.83572
       O   -15.32211   -8.20305   -5.67660
      H1   -15.82597   -8.97099   -5.51670
       H   -15.80018   -6.43359  -11.72874
       O   -15.02025   -5.86652  -11.78073
      H1   -15.42612   -5.03440  -11.51475
       H    -5.10189   -3.26567   -5.92453
       O    -5.37702   -3.23305   -5.00911
      H1    -6.32835   -3.40550   -5.10420
       H   -15.73414  -12.04868   -5.38994
       O   -15.05472  -12.72542   -5.42986
      H1   -15.01988  -12.89325   -6.40545

