180
frame 0 | Written by MDAnalysis XYZWriter (release 2.4.3)
       H   -15.11438    0.05648   -9.85588
       O   -14.94498    0.99787   -9.66795
      H1   -14.41904    1.21507  -10.47677
       H   -17.44481    5.51037   -5.07341
       O   -17.25433    6.05378   -4.27762
      H1   -16.29670    5.91940   -4.09467
       H   -11.56525    7.28470  -10.89575
       O   -10.90685    6.67190  -11.25871
      H1   -10.47922    6.37141  -10.46579
       H    -8.01830    1.00376   -6.05311
       O    -8.82516    1.59565   -6.10251
      H1    -8.53465    2.11472   -6.86185
       H   -13.37067    3.24689  -10.93823
       O   -13.38411    2.35893  -11.31877
      H1   -14.23231    2.47707  -11.78461
       H    -9.33150    7.77100  -12.40631
       O    -8.74491    7.58893  -13.22483
      H1    -7.95544    8.18700  -13.18488
       H   -13.32260    4.67752   -7.44458
       O   -13.58158    5.61324   -7.36678
      H1   -13.98226    5.86561   -8.21040
       H   -17.59228    1.46973   -8.38412
       O   -18.40767    1.02252   -8.61165
      H1   -18.15285    0.08006   -8.61249
       H    -8.56431    0.98178   -8.65068
       O    -8.69747    0.03901   -8.80357
      H1    -9.07158   -0.22391   -7.92826
       H   -14.60369    2.68756   -6.78685
       O   -13.85300    2.92090   -7.35636
      H1   -14.20907    2.72042   -8.23970
       H   -15.74914    3.32841  -12.99371
       O   -15.66246    2.42574  -12.67867
      H1   -16.45817    2.27390  -12.10237
       H   -12.46922    8.70330   -3.25641
       O   -12.03956    7.99491   -2.74377
      H1   -11.57873    7.58322   -3.44869
       H   -12.35822    1.46482   -3.56012
       O   -11.55356    0.90484   -3.50576
      H1   -11.77935   -0.07460   -3.68523
       H   -13.04118    9.43038  -12.27799
       O   -12.85518    9.03725  -11.44792
      H1   -12.59897    9.83858  -10.92188
       H   -14.17755    6.94405   -4.22125
       O   -14.02003    5.94736   -4.27615
      H1   -13.85534    5.68487   -5.22959
       H   -15.58423    5.46105  -13.30408
       O   -15.81816    4.86732  -14.07570
      H1   -15.01141    4.92575  -14.66091
       H   -18.14146    2.85734  -10.85763
       O   -17.86950    1.99456  -11.12006
      H1   -18.11137    1.49951  -10.32044
       H   -15.51241   10.83433   -6.92078
       O   -14.98886   11.61099   -6.84825
      H1   -15.45761   12.22604   -7.48214
       H    -9.26418    7.87809   -7.21768
       O    -8.60029    7.54176   -6.60614
      H1    -8.88816    6.62385   -6.44380
       H   -15.99595    7.29630   -9.20299
       O   -16.49280    6.60746   -8.70303
      H1   -17.44124    6.76124   -9.04056
       H    -5.78356    5.72282   -7.72667
       O    -5.85729    6.68099   -7.91024
      H1    -6.78593    6.78550   -7.61591
       H   -14.90484   -0.05624   -5.82217
       O   -14.87752    0.02810   -6.79798
      H1   -14.02808   -0.43529   -7.06732
       H    -9.94827    0.24476   -9.92736
       O   -10.59538    0.52047  -10.64013
      H1   -11.40526    0.53262  -10.08210
       H   -12.23910   10.00506   -6.53968
       O   -12.03984    9.08710   -6.25432
      H1   -11.22896    9.23738   -5.77320
       H   -16.76022    9.02182   -1.61344
       O   -15.81289    8.89137   -1.96703
      H1   -15.91655    9.03886   -2.90984
       H   -15.15764   -1.48476  -10.73486
       O   -16.05776   -1.59634  -10.38925
      H1   -16.51790   -2.02344  -11.10515
       H   -17.58160    3.77281   -6.39997
       O   -17.79823    4.71220   -6.55538
      H1   -17.61770    4.90045   -7.50121
       H   -16.20991    8.12905   -7.40418
       O   -16.30747    8.72835   -6.65162
      H1   -17.15326    8.31238   -6.34205
       H   -16.09032   -2.18148   -8.55065
       O   -16.18367   -2.20116   -7.60597
      H1   -15.64477   -1.42299   -7.24748
       H   -19.19277    6.72813  -10.25212
       O   -19.01325    7.34929   -9.57596
      H1   -19.89358    7.69539   -9.24148
       H   -12.80007   -1.41492  -11.72394
       O   -13.32682   -1.54908  -10.90613
      H1   -12.78057   -2.24924  -10.42472
       H   -13.43407    4.04141   -3.97003
       O   -13.10427    3.15901   -3.83065
      H1   -12.37311    3.17377   -4.54665
       H   -13.54424    7.40583  -12.27589
       O   -13.76697    6.70513  -12.90242
      H1   -12.91707    6.58649  -13.36751
       H   -16.59248    2.23100   -5.29736
       O   -17.04693    2.08155   -6.12329
      H1   -17.68419    1.42635   -5.72872
       H    -9.81814   -1.22683   -5.83566
       O   -10.31533   -1.06612   -6.68179
      H1   -10.49108   -0.16724   -6.49440
       H   -12.56270   -2.73645   -6.16899
       O   -12.76666   -2.00076   -6.75082
      H1   -11.88419   -1.55510   -6.63991
       H   -11.58141    6.33029   -6.18208
       O   -10.84783    5.77585   -5.98773
      H1   -10.76453    5.92534   -5.04471
       H   -11.66487    1.16661   -1.60360
       O   -12.02979    1.42737   -0.72495
      H1   -11.16962    1.43553   -0.25030
       H   -10.98296    3.76225   -8.98275
       O   -10.28470    3.98229   -9.59714
      H1   -10.53245    3.55689  -10.41887
       H    -8.50879    3.11803   -1.42023
       O    -9.01915    3.91431   -1.02147
      H1    -9.52233    4.16008   -1.82262
       H    -9.08265    8.37648   -5.30325
       O    -9.70742    8.94547   -4.74285
      H1    -9.43065    8.65098   -3.83297
       H   -19.80565    4.56688  -10.88533
       O   -19.24857    4.32020  -10.10669
      H1   -19.83984    4.64924   -9.47972
       H   -12.73260    5.24810  -10.39272
       O   -13.65255    4.92891  -10.43790
      H1   -13.77758    5.17718  -11.36537
       H   -11.32898    1.78779   -7.33082
       O   -11.67248    1.25961   -8.06854
      H1   -12.63495    1.16262   -7.88626
       H   -15.07329    2.37147   -3.52073
       O   -15.96803    2.55100   -3.38380
      H1   -16.28671    1.80924   -2.86753
       H   -10.73390    9.16679   -7.99302
       O    -9.88855    8.95764   -8.40953
      H1    -9.57923    9.77875   -8.79726
       H    -7.11051    3.02744   -8.91273
       O    -7.96185    2.68468   -8.67131
      H1    -8.60277    3.18638   -9.21834
       H   -13.13883    0.13381  -13.91759
       O   -13.75021    0.80831  -14.23335
      H1   -14.29196    1.07476  -13.49769
       H   -14.94715   11.55278   -5.09899
       O   -14.80872   11.42470   -4.14291
      H1   -14.47894   10.50884   -4.05362
       H   -19.03323    7.30697   -4.84742
       O   -19.53906    7.91510   -5.32156
      H1   -19.42212    8.60675   -4.66570
       H   -13.52844    8.80602   -5.33178
       O   -14.31383    8.83513   -4.79763
      H1   -15.03446    8.76059   -5.51341
       H   -11.09162    2.82774  -12.42622
       O   -10.25160    2.86670  -11.96517
      H1   -10.41794    2.06950  -11.42495
       H   -12.32358   12.45027   -7.19936
       O   -12.52474   11.52480   -7.40030
      H1   -13.50611   11.53505   -7.10673
       H   -12.76236    4.06780   -2.21240
       O   -12.62225    4.98234   -2.01105
      H1   -13.20241    5.42924   -2.59787
       H   -15.25615    4.44986   -0.88527
       O   -15.90835    4.68532   -1.56588
      H1   -15.81360    4.05661   -2.28800
       H   -12.64718    2.40417  -14.34384
       O   -12.21673    3.20584  -14.12172
      H1   -11.32623    2.98204  -14.52186
       H   -15.96978    9.69190  -10.10406
       O   -15.22908    9.21408   -9.62939
      H1   -14.58857    9.12209  -10.34680
       H   -11.04320    5.23185   -2.90344
       O   -10.31057    5.63890   -3.35206
      H1    -9.88044    6.28148   -2.76033
       H   -18.39590    2.99277   -2.51333
       O   -19.03322    3.42894   -3.08366
      H1   -18.46054    3.99018   -3.57106
       H   -10.23101    3.32279   -5.47934
       O   -11.15870    3.25209   -5.72728
      H1   -11.29830    4.21510   -5.95123

