180
frame 0 | Written by MDAnalysis XYZWriter (release 2.4.3)
       H    -5.07850   -6.31688    4.09823
       O    -5.47186   -5.55477    3.63712
      H1    -5.60878   -4.94563    4.39758
       H   -14.57173   -4.06580   -2.83909
       O   -15.21549   -3.36769   -2.54173
      H1   -15.51393   -3.72821   -1.70672
       H   -10.09984   -3.94593   -4.63857
       O   -10.75867   -3.78271   -3.91121
      H1   -10.52497   -4.50323   -3.29590
       H   -11.37743   -3.60681   -0.92262
       O   -11.46507   -2.64232   -0.92971
      H1   -10.65424   -2.29521   -0.56547
       H   -12.35822    1.46482   -3.56012
       O   -11.55356    0.90484   -3.50576
      H1   -11.77935   -0.07460   -3.68523
       H   -13.70413    0.69916    3.17817
       O   -13.51641    1.41944    3.79138
      H1   -14.07000    2.16373    3.63567
       H   -14.90193    2.02141   -0.53379
       O   -15.33757    1.16281   -0.51876
      H1   -15.95729    1.30446    0.22472
       H   -10.07299   -1.39827    7.44305
       O   -10.62843   -1.62341    6.73466
      H1   -10.01021   -2.01288    6.12801
       H   -14.93144   -0.39223   -1.82210
       O   -14.86503   -0.67581   -2.72697
      H1   -14.99717   -1.60674   -2.69394
       H    -6.40916   -6.27229   -3.45447
       O    -5.68217   -6.16272   -2.74738
      H1    -5.42556   -5.24910   -3.01291
       H    -3.34337   -0.35397   -2.55806
       O    -3.37984   -0.82468   -1.68231
      H1    -2.73027   -0.34218   -1.12251
       H   -11.14980    2.93580    2.22450
       O   -11.20348    2.89677    3.19654
      H1   -12.03295    2.38422    3.33288
       H   -13.49489   -4.55323    0.09480
       O   -12.70102   -5.10970   -0.12558
      H1   -12.40398   -5.38878    0.71054
       H   -13.32990   -7.51510    4.50221
       O   -13.34303   -6.77398    3.87617
      H1   -13.88210   -6.11123    4.33770
       H    -7.34196    1.96521    5.96128
       O    -7.73617    1.07925    5.84331
      H1    -8.66817    1.25501    5.66019
       H    -3.44463   -3.07184    1.50030
       O    -3.89890   -3.26750    0.65264
      H1    -4.76363   -2.82738    0.76853
       H   -11.23012   -5.94148    6.54620
       O   -10.29432   -6.03284    6.35209
      H1   -10.09051   -5.15954    6.06066
       H    -7.20978   -7.09755   -1.86735
       O    -8.03560   -7.40062   -1.40546
      H1    -7.92749   -6.83028   -0.64555
       H    -8.64132   -8.00891    4.69160
       O    -9.33151   -7.46701    4.26732
      H1    -9.74097   -7.10417    5.12069
       H    -8.53383   -3.51280    2.65001
       O    -8.43857   -2.58270    2.82954
      H1    -7.51707   -2.42070    2.47255
       H   -12.78907   -0.15474    0.12256
       O   -13.06783   -1.07646    0.29868
      H1   -12.49266   -1.65333   -0.27351
       H    -7.16583    2.58417    3.23683
       O    -7.65855    1.81899    2.79073
      H1    -8.18725    1.41377    3.46022
       H    -9.17231   -1.96181    0.88100
       O    -9.34449   -1.42220    0.08667
      H1    -8.46009   -1.36112   -0.24185
       H    -4.84925   -5.28048    0.70735
       O    -4.83392   -6.20559    0.89308
      H1    -5.26418   -6.21388    1.74570
       H    -6.45101   -2.21160    0.14805
       O    -6.45420   -2.08072    1.09904
      H1    -6.36264   -1.09877    1.17920
       H    -9.23233   -2.32109   -3.71838
       O    -8.97139   -1.69074   -4.44429
      H1    -8.61222   -1.01770   -3.89007
       H   -16.12795   -4.85541    0.22245
       O   -15.42126   -4.22087    0.07573
      H1   -15.73033   -3.45043    0.53737
       H   -12.74530    0.72196    5.45446
       O   -12.24005    0.81447    6.29284
      H1   -11.56048    0.09197    6.14198
       H    -3.22009   -0.46284    4.35101
       O    -2.58081   -1.07901    4.66308
      H1    -2.79199   -1.92815    4.35886
       H    -7.00338    0.66321   -2.79986
       O    -6.97095   -0.13473   -3.39109
      H1    -6.66344   -0.72257   -2.71740
       H   -14.34277   -1.34080    1.15880
       O   -15.16342   -1.60618    1.65173
      H1   -14.62009   -1.68028    2.47723
       H    -9.81814   -1.22683   -5.83566
       O   -10.31533   -1.06612   -6.68179
      H1   -10.49108   -0.16724   -6.49440
       H   -10.84655   -6.53466   -2.65087
       O    -9.89240   -6.22436   -2.80356
      H1    -9.36848   -6.80746   -2.21069
       H    -9.60791    0.34991    0.55382
       O    -9.94314    1.19966    0.83552
      H1    -9.37725    1.34264    1.61648
       H    -6.43835   -5.51622    0.10519
       O    -7.31634   -5.04005    0.03515
      H1    -7.54129   -4.98880    0.97582
       H    -6.69860    2.78671   -1.83518
       O    -7.07612    1.93700   -1.54370
      H1    -6.67982    1.84275   -0.66654
       H   -11.66487    1.16661   -1.60360
       O   -12.02979    1.42737   -0.72495
      H1   -11.16962    1.43553   -0.25030
       H    -5.00174   -1.33497   -1.47033
       O    -5.92119   -1.71028   -1.47972
      H1    -5.61086   -2.66299   -1.67324
       H   -11.87982   -8.17758   -0.46317
       O   -11.06514   -8.43836   -0.00106
      H1   -10.77585   -9.16314   -0.58478
       H   -12.34759   -3.37417    6.60704
       O   -12.76966   -4.17214    6.29953
      H1   -13.50836   -3.90510    5.66226
       H    -8.50879    3.11803   -1.42023
       O    -9.01915    3.91431   -1.02147
      H1    -9.52233    4.16008   -1.82262
       H    -3.74380   -3.61805   -2.28967
       O    -4.66001   -3.61295   -2.58428
      H1    -4.54605   -3.09190   -3.42164
       H   -12.13338   -1.98762    3.01685
       O   -11.75817   -1.23931    2.60826
      H1   -11.79335   -1.57417    1.68572
       H    -9.05918   -3.09531    4.37547
       O    -9.41456   -3.63773    5.10965
      H1    -8.58527   -4.16305    5.24946
       H   -10.90628   -7.16661    1.38116
       O   -11.24134   -6.30592    1.69435
      H1   -11.92647   -6.56810    2.30309
       H    -6.98129   -4.39754    7.27344
       O    -6.72517   -4.88839    6.50375
      H1    -7.17394   -5.75609    6.56356
       H   -10.30339    3.47905    4.29251
       O    -9.69051    3.87622    5.03612
      H1   -10.13074    4.76829    4.96393
       H   -13.70518   -4.77460   -4.91676
       O   -13.27594   -4.84610   -3.98113
      H1   -12.55894   -4.18332   -3.95922
       H   -12.98553   -6.62987   -2.84874
       O   -12.84611   -7.09062   -2.01877
      H1   -12.76564   -6.32722   -1.42818
       H    -6.11298    0.12250    5.40550
       O    -5.29487   -0.27941    5.10209
      H1    -5.05683   -0.71072    5.94774
       H   -14.12422   -2.09208    4.88570
       O   -13.85515   -2.37549    4.04501
      H1   -14.50187   -3.14862    3.96739
       H    -8.46513   -3.16348   -5.35970
       O    -7.91741   -3.89239   -5.56268
      H1    -8.28627   -4.09855   -6.46906
       H    -4.85329    0.76178    1.17263
       O    -5.74436    0.75939    0.81769
      H1    -6.34706    1.21363    1.45771
       H    -8.65260   -6.53484   -4.12751
       O    -7.75792   -6.52691   -4.52041
      H1    -7.75584   -5.66218   -4.96079
       H    -9.60256   -5.75240    2.14621
       O    -8.75865   -5.36634    2.51630
      H1    -8.53960   -6.07078    3.17204
       H    -2.90903    1.69562    2.19453
       O    -3.05710    1.30178    1.28281
      H1    -3.22667    2.11136    0.82596
       H   -10.45916    1.45539    3.55030
       O    -9.94916    0.65772    3.83755
      H1   -10.56436   -0.02295    3.54258
       H   -11.81026   -2.16892   -2.98923
       O   -12.39594   -1.63718   -3.55498
      H1   -13.08176   -1.24843   -2.96970
       H    -6.47012   -0.73969   -6.46012
       O    -6.47256    0.14031   -5.98844
      H1    -6.64859   -0.20382   -5.05365
       H    -1.84411   -2.90142   -1.97595
       O    -2.12264   -3.67600   -1.42897
      H1    -2.61276   -3.18207   -0.71345

