180
frame 8 | Written by MDAnalysis XYZWriter (release 2.4.3)
       H   -19.29784   -9.86860  -13.84967
       O   -18.75642   -9.72677  -14.64288
      H1   -17.99592   -9.30616  -14.30127
       H   -10.14849   -6.75600  -17.27891
       O   -10.40559   -7.43289  -17.88678
      H1   -10.64986   -6.95002  -18.67855
       H    -9.93879   -3.86608   -5.56793
       O   -10.90809   -3.94301   -5.64103
      H1   -10.99027   -4.81979   -6.13091
       H   -13.95809  -13.97068   -8.17806
       O   -14.93323  -13.98781   -7.85846
      H1   -14.96225  -14.95058   -7.70356
       H   -12.03830  -15.12183  -13.64627
       O   -11.45271  -15.55885  -14.37520
      H1   -12.02482  -16.23492  -14.77984
       H   -12.89200   -9.13058  -10.23314
       O   -12.92266   -8.77329  -11.13248
      H1   -13.89552   -8.85817  -11.33592
       H    -9.48938   -6.54320   -9.41637
       O    -9.70049   -5.63205   -9.69078
      H1   -10.62078   -5.64772   -9.96141
       H    -8.12391  -12.16237  -13.95338
       O    -8.14989  -11.38218  -14.47681
      H1    -7.64896  -10.69679  -13.99759
       H   -13.14038   -4.02319   -9.43505
       O   -12.36810   -3.41887   -9.49814
      H1   -12.32952   -2.96808   -8.65794
       H    -7.46492   -8.28956  -13.96924
       O    -7.00547   -8.80497  -14.63453
      H1    -6.07392   -8.58639  -14.41532
       H   -10.06915   -6.73208  -14.46321
       O   -10.92041   -7.04840  -14.04615
      H1   -11.24302   -7.69663  -14.76173
       H   -12.30943   -7.04605  -11.52534
       O   -12.21999   -6.10208  -11.43468
      H1   -13.03724   -5.76755  -11.83156
       H   -12.16598  -12.99251   -9.57475
       O   -12.46817  -13.76603   -9.10399
      H1   -11.65816  -14.21634   -8.94746
       H   -16.16461   -4.73879   -8.68239
       O   -16.91811   -4.23339   -8.41406
      H1   -16.57971   -3.59872   -7.78079
       H    -9.63997   -6.03523  -12.42446
       O    -9.07205   -5.25940  -12.19299
      H1    -9.05744   -5.26505  -11.17593
       H   -10.24424   -6.14898   -7.77374
       O   -10.92755   -6.36949   -7.07443
      H1   -10.44343   -7.03869   -6.47832
       H   -17.81886   -7.20798   -8.82296
       O   -18.65687   -7.46268   -9.26013
      H1   -18.91714   -8.33622   -8.96024
       H    -7.01873   -5.64882  -11.99060
       O    -6.03647   -5.60930  -11.92260
      H1    -5.95540   -6.06841  -11.05933
       H   -12.19009   -3.55035  -11.30908
       O   -12.58681   -3.47202  -12.20744
      H1   -11.85709   -3.83885  -12.77882
       H    -9.03704  -10.34804   -5.60959
       O    -9.80828  -10.28681   -6.28761
      H1   -10.43371  -10.96136   -5.98139
       H   -17.82198   -5.47591   -7.40559
       O   -18.30262   -6.08115   -6.80580
      H1   -19.24648   -5.80937   -7.03082
       H    -8.72069   -3.20297  -12.35465
       O    -8.89760   -2.46328  -12.93616
      H1    -7.99903   -2.10535  -13.16607
       H   -12.88029   -7.96736   -3.57975
       O   -12.88854   -8.28100   -4.50988
      H1   -13.81343   -8.17875   -4.71953
       H    -9.76573   -8.33608  -13.24035
       O    -9.00937   -8.71136  -12.82516
      H1    -8.98159   -9.50846  -13.37299
       H   -15.98845  -13.10575  -13.62644
       O   -16.16264  -12.98374  -12.69481
      H1   -15.35367  -12.77037  -12.17827
       H   -15.83203   -2.42935  -10.77207
       O   -16.52024   -3.06738  -10.74386
      H1   -16.66975   -3.26297   -9.77115
       H   -19.04226   -3.52748  -12.53660
       O   -18.89396   -4.27951  -11.93386
      H1   -18.04850   -3.97121  -11.51745
       H    -8.99636   -5.10276  -15.72827
       O    -8.87511   -6.09339  -15.64279
      H1    -7.99993   -6.11202  -16.13556
       H   -15.19436  -11.53348  -14.99946
       O   -15.05823  -10.64762  -14.68491
      H1   -15.35000  -10.65631  -13.76820
       H   -17.18648  -10.61478   -6.39412
       O   -16.67203  -10.47818   -5.61009
      H1   -17.28630  -10.22635   -4.90384
       H   -10.71916  -11.19189  -12.62809
       O   -11.44917  -10.64197  -12.80519
      H1   -11.32416   -9.87714  -12.20021
       H   -17.11959   -8.45379  -11.61453
       O   -17.40828   -7.54086  -11.64094
      H1   -17.88196   -7.40018  -10.76268
       H   -16.09619   -9.27386   -8.43062
       O   -15.93141   -8.34242   -8.28457
      H1   -16.14211   -8.22298   -7.28241
       H   -12.70903  -10.70523   -8.37943
       O   -12.32734  -10.67676   -9.26991
      H1   -11.37786  -10.54880   -9.11198
       H   -13.08498  -11.47574  -12.12629
       O   -13.59907  -12.22069  -11.64255
      H1   -13.45619  -11.86033  -10.72304
       H    -8.75750  -11.21855   -7.52401
       O    -7.97912  -11.48726   -8.15633
      H1    -7.48060  -10.64632   -8.02622
       H   -11.88851  -12.59108   -4.84639
       O   -11.46872  -12.44036   -5.76943
      H1   -12.21773  -12.00813   -6.29527
       H   -18.06835  -14.03985   -8.25971
       O   -17.39710  -13.53250   -8.64016
      H1   -16.55123  -13.86184   -8.28883
       H   -10.09460  -11.10822  -15.42171
       O   -10.85567  -11.03826  -16.05274
      H1   -10.41177  -10.78524  -16.84943
       H   -11.12117   -7.82328   -4.79176
       O   -10.22693   -7.84285   -5.11615
      H1   -10.18048   -8.73443   -5.54960
       H   -12.88001  -13.66031  -12.07075
       O   -12.56985  -14.59964  -12.11304
      H1   -12.78271  -14.97791  -11.23081
       H    -8.38986   -2.58782   -8.61648
       O    -8.91098   -3.32851   -8.22287
      H1    -8.99517   -3.94461   -8.93823
       H    -9.52439   -9.31437  -11.30348
       O    -9.83740   -9.91224  -10.58136
      H1    -9.92575  -10.81193  -11.07084
       H   -15.50325   -2.82208  -13.59109
       O   -15.22783   -3.73346  -13.59628
      H1   -14.41160   -3.63733  -13.03684
       H   -13.36264   -9.42426  -17.25452
       O   -13.51711   -9.95252  -18.02364
      H1   -14.32249  -10.41478  -17.78987
       H    -8.98541   -8.90691   -8.98200
       O    -8.71503   -8.04551   -8.85347
      H1    -7.71057   -8.08502   -8.87716
       H    -9.17355  -13.15301  -11.64397
       O    -9.03606  -12.26241  -11.97873
      H1    -8.31514  -11.98746  -11.40813
       H   -17.13349  -11.43940  -11.41796
       O   -17.14317  -10.45335  -11.44945
      H1   -17.97776  -10.31680  -10.96535
       H   -15.90041   -9.63975  -15.89320
       O   -16.29613   -8.98538  -16.53128
      H1   -16.17115   -8.12927  -16.05932
       H   -12.62420   -3.13845  -14.45714
       O   -12.30548   -2.97246  -15.36941
      H1   -12.69068   -3.82407  -15.72988
       H   -12.78664   -6.09545   -6.71965
       O   -13.76900   -6.12328   -6.76899
      H1   -14.00813   -7.02611   -6.98838
       H   -16.40450   -5.79690  -15.35241
       O   -15.40398   -5.84436  -15.38097
      H1   -15.11411   -5.25023  -14.63084
       H   -11.13385  -13.00396  -16.32439
       O   -11.19087  -13.92906  -16.50939
      H1   -11.37992  -14.38186  -15.64462
       H   -14.00056  -10.97672   -6.11000
       O   -13.37121  -10.59724   -6.77948
      H1   -13.25040   -9.75625   -6.37447
       H   -13.46402   -5.45423  -18.33375
       O   -13.63616   -5.07213  -17.43328
      H1   -14.07666   -5.72610  -16.87267
       H   -14.32662   -5.83713   -9.94481
       O   -14.37741   -5.19861   -9.20244
      H1   -13.98940   -5.68594   -8.40832
       H   -15.53206   -7.69333   -4.83572
       O   -15.32211   -8.20305   -5.67660
      H1   -15.82597   -8.97099   -5.51670
       H   -15.80018   -6.43359  -11.72874
       O   -15.02025   -5.86652  -11.78073
      H1   -15.42612   -5.03440  -11.51475
       H   -15.73414  -12.04868   -5.38994
       O   -15.05472  -12.72542   -5.42986
      H1   -15.01988  -12.89325   -6.40545
       H   -11.78463   -9.43456  -15.77586
       O   -12.12880   -8.53521  -15.99847
      H1   -11.53619   -8.15777  -16.65350

