180
frame 3 | Written by MDAnalysis XYZWriter (release 2.4.3)
       H    14.08955  -12.92769    4.43287
       O    13.40935  -12.67165    3.78926
      H1    12.70072  -13.30779    3.85709
       H     8.63830  -12.13509   10.89053
       O     9.25843  -12.84724   10.71073
      H1     8.65808  -13.51292   10.33229
       H    10.97120  -17.28194   12.11689
       O    11.48742  -17.48731   11.32820
      H1    10.87794  -17.24363   10.65584
       H     6.27561  -10.18726    8.66036
       O     5.95835  -10.44106    9.54642
      H1     6.73137  -10.26060   10.14546
       H    10.03994  -13.32133   -0.76075
       O     9.16086  -13.27192   -0.33216
      H1     8.72197  -12.47718   -0.63012
       H    13.03748  -17.95582   11.26758
       O    13.95999  -18.33835   11.26954
      H1    14.03713  -18.87081   10.48595
       H    10.63757  -13.78318    3.40679
       O    11.18161  -14.28564    4.04033
      H1    11.38754  -15.10943    3.53073
       H     8.82281   -9.94754    6.41819
       O     8.38503   -9.52070    5.72478
      H1     8.54578  -10.08795    4.90526
       H     7.61964   -9.86304   12.54759
       O     7.88492  -10.06106   11.61121
      H1     8.69378   -9.52645   11.54900
       H     7.37550   -6.38660    5.16606
       O     8.02235   -6.81955    5.73717
      H1     7.87966   -7.73781    5.64096
       H    13.57155  -12.43239    1.65199
       O    13.77856  -12.09745    0.75330
      H1    14.65511  -12.51406    0.57761
       H     8.58059  -14.52789    5.86247
       O     9.49273  -14.48068    6.23252
      H1    10.03535  -14.20518    5.50582
       H     8.56163  -16.88623    0.30293
       O     8.65004  -16.07399    0.78444
      H1     8.65275  -16.29120    1.71342
       H    15.79611  -12.99896    6.10573
       O    15.87278  -13.44214    5.24671
      H1    16.31462  -12.80445    4.66222
       H    13.47444   -9.25771    6.69956
       O    13.31657  -10.19474    6.84973
      H1    14.12447  -10.66815    6.94703
       H     5.66997  -13.22374   11.94497
       O     6.17608  -14.00717   11.93899
      H1     6.57671  -14.00287   11.03071
       H     5.66621   -9.47006    2.47266
       O     5.80619  -10.41483    2.38948
      H1     6.72398  -10.58542    2.16584
       H    13.82511  -13.30471    9.34036
       O    13.50022  -12.57320    8.82605
      H1    12.63712  -12.95021    8.56161
       H     8.00235  -13.30242    2.71096
       O     7.18551  -13.33820    3.23158
      H1     6.65250  -13.89728    2.58459
       H    12.95608  -11.08202    3.75386
       O    12.84559  -10.09152    3.91159
      H1    12.65998  -10.03453    4.86025
       H     8.02061   -9.06828    1.33505
       O     8.32486  -10.00665    1.23216
      H1     8.15533  -10.26058    0.30055
       H    12.72544  -13.51032   -0.26687
       O    11.93547  -13.81140   -0.70943
      H1    11.77823  -14.68870   -0.37721
       H    14.54826   -8.24515    9.57397
       O    14.56108   -9.20386    9.46544
      H1    13.83821   -9.42798    8.83871
       H     5.25532  -17.50049    2.98244
       O     4.87372  -17.29695    2.08913
      H1     5.40484  -16.59371    1.84748
       H    10.10502   -8.09142    4.42978
       O    10.66709   -7.45086    3.99494
      H1    10.85411   -7.76488    3.08169
       H     4.48529  -11.24873    8.83885
       O     3.73068  -11.87109    8.50421
      H1     4.17495  -12.72171    8.18580
       H     6.92370  -15.28927    1.05902
       O     6.08111  -14.97418    1.22585
      H1     5.66490  -14.76097    0.38914
       H     6.90947  -17.61923    9.78140
       O     7.55207  -17.10950   10.23820
      H1     7.30091  -17.18111   11.14753
       H     5.15632   -9.15515    6.36731
       O     5.75401   -9.81710    6.71440
      H1     6.67437   -9.54737    6.49855
       H     9.92344  -10.17131    2.45808
       O    10.25029  -10.41109    3.33560
      H1    11.22183  -10.18622    3.36322
       H     3.84376  -16.50596    7.23233
       O     3.87701  -16.44266    8.24556
      H1     3.00262  -16.18464    8.61655
       H    10.16545  -11.74924   11.98763
       O    10.81956  -11.24339   12.54090
      H1    11.63070  -11.48130   12.04129
       H    10.01172  -17.82466    8.25721
       O     9.87401  -18.35605    9.06230
      H1     8.98461  -18.14438    9.38249
       H     8.56124  -19.63196    3.20028
       O     7.72705  -19.21255    3.15487
      H1     7.18559  -19.63211    3.81532
       H     3.69255  -16.09535    5.20883
       O     3.55258  -16.91456    5.67159
      H1     2.60778  -16.96670    5.79182
       H    14.94402  -12.02609    8.08092
       O    15.52450  -11.68602    7.38311
      H1    16.48253  -11.71069    7.62166
       H     5.16801  -11.61505    5.40219
       O     4.59194  -11.87026    4.67193
      H1     5.13845  -11.82552    3.83295
       H     8.03957  -12.01751   13.74769
       O     8.18351  -12.89643   13.51992
      H1     7.53631  -13.19530   12.90289
       H    14.42258  -15.56336   10.83710
       O    14.59596  -14.99472    9.98856
      H1    15.44722  -14.53088   10.15681
       H    16.36849  -16.33564    4.71385
       O    15.77015  -15.89541    4.10488
      H1    15.62334  -15.01839    4.39056
       H    14.31464  -11.88564   11.41212
       O    13.38613  -12.14955   11.45364
      H1    13.07301  -12.16360   10.55751
       H    13.14141  -16.02243    8.16158
       O    13.22663  -16.83693    7.72435
      H1    13.62442  -17.33031    8.44768
       H    12.53644  -15.71794   12.56194
       O    13.48474  -15.62486   12.60374
      H1    13.61556  -14.63310   12.75525
       H    10.99536  -16.83443   -0.62192
       O    11.20329  -16.32154    0.19575
      H1    10.38597  -15.91828    0.39611
       H     5.06073  -11.61790   10.88021
       O     4.59577  -11.82927   11.70131
      H1     3.80485  -12.18773   11.33027
       H    11.24797  -17.91651    3.99459
       O    10.52133  -18.53186    4.11469
      H1    10.77525  -19.12430    4.82483
       H    14.29208  -18.39321    5.47372
       O    14.60215  -19.24096    5.84720
      H1    14.85324  -19.01472    6.75700
       H     6.48525  -14.69150    4.95228
       O     6.54644  -15.02635    5.82517
      H1     6.76557  -15.96320    5.88810
       H     8.52083  -17.83075    5.59912
       O     7.63500  -17.85359    6.00290
      H1     7.46042  -18.82865    6.17537
       H     3.64145  -13.32422    4.93914
       O     3.01665  -14.07018    4.89321
      H1     2.79650  -14.16996    3.95215
       H    10.16329   -7.44302    7.40767
       O    10.98044   -7.73727    7.71827
      H1    11.23458   -7.11393    8.44070
       H    13.23539  -17.10642    2.72947
       O    13.22993  -16.57010    3.47575
      H1    14.14143  -16.38296    3.77695
       H     6.56280  -14.62132    9.01906
       O     7.40634  -14.65548    9.46311
      H1     7.51214  -15.55343    9.80688
       H    16.97198  -15.98272    8.67459
       O    16.44546  -16.55996    8.11497
      H1    15.56350  -16.22021    8.30820
       H     9.88055  -11.95327    2.51449
       O     9.73652  -12.89591    2.27996
      H1     9.26370  -12.99805    1.44701
       H     8.92952  -17.22072    3.51225
       O     8.87088  -16.31024    3.29356
      H1     9.70142  -15.98664    3.73619
       H    10.18876  -16.13587    6.61091
       O    10.49211  -17.03182    6.60837
      H1    11.42106  -17.12826    6.73273
       H     5.65834  -14.69731    7.21547
       O     5.08180  -14.11352    7.74814
      H1     4.54393  -14.72743    8.26596
       H    10.22069  -12.72182    9.09721
       O    10.58408  -12.60107    8.21150
      H1     9.95351  -13.03304    7.66554
       H    10.02411   -9.11231    7.88908
       O     9.53989   -9.94519    8.02013
      H1    10.16969  -10.70051    8.10104

