180
frame 6 | Written by MDAnalysis XYZWriter (release 2.4.3)
       H     9.68284   10.38215   -9.90002
       O     8.80928   10.16430  -10.23582
      H1     8.35152    9.72001   -9.48132
       H     6.46716   12.37319  -11.39152
       O     6.27510   12.95986  -10.60219
      H1     5.51373   13.49236  -10.86304
       H     2.76558   10.70483  -12.28770
       O     3.69165   10.98041  -12.18024
      H1     3.74156   10.82869  -11.22394
       H     9.08598   15.12544   -5.09296
       O     9.93177   15.42402   -4.85138
      H1     9.71310   15.88544   -4.07376
       H     5.95790    7.98350   -5.47311
       O     5.08754    7.54164   -5.37336
      H1     4.52008    8.23168   -5.74904
       H    -0.32545   11.22565   -1.06758
       O     0.39112   11.12570   -1.69312
      H1     0.25912   10.28366   -2.17695
       H     6.12418   12.13281   -2.11543
       O     6.97918   11.77218   -2.11101
      H1     7.07237   11.69874   -3.02401
       H     8.61537   12.21961    1.83786
       O     8.00473   11.67050    1.38997
      H1     7.35829   12.32334    1.20611
       H     1.84506   15.41638   -2.16650
       O     2.13496   16.27340   -1.81641
      H1     1.54010   16.83718   -2.28950
       H    11.48278    7.03869   -5.27130
       O    10.72384    6.54473   -5.63761
      H1    10.93306    5.62826   -5.47453
       H     4.03040   11.55249   -1.58701
       O     4.02547   11.76370   -2.54623
      H1     3.47948   11.03138   -2.88939
       H     7.98741   12.41367   -8.34478
       O     8.91676   12.64242   -8.08686
      H1     9.25763   13.32585   -8.70249
       H     5.94255    9.72378   -0.11045
       O     6.04492    9.32033   -1.03088
      H1     6.38944   10.15182   -1.52373
       H     6.99267    8.20669   -7.71648
       O     7.45684    8.14637   -8.58675
      H1     7.04810    7.45204   -9.07811
       H     9.72633   15.98109   -9.20106
       O    10.32101   15.35897   -8.76022
      H1    10.24257   15.63004   -7.89022
       H     9.35900   14.61737   -0.36002
       O     8.95379   15.47927   -0.30605
      H1     9.64269   16.05554    0.15697
       H     1.02291   14.08235   -6.47005
       O     0.57322   14.15836   -7.31293
      H1    -0.35321   14.16550   -6.97198
       H     4.37793   11.04135    1.21773
       O     3.95747   11.56631    0.50272
      H1     3.58052   12.32534    0.93660
       H     2.78410   12.95559   -1.98081
       O     1.98286   13.33439   -1.58577
      H1     1.56864   12.45373   -1.32665
       H    11.24678   14.08616   -3.98030
       O    11.64313   13.21607   -3.75656
      H1    10.89509   12.67437   -4.11453
       H    -0.30047   12.69909   -9.64729
       O     0.00134   11.99909   -9.03873
      H1     0.39098   12.59779   -8.34593
       H     2.38321   14.76231   -4.60500
       O     1.86180   13.96951   -4.79122
      H1     1.12413   14.10045   -4.19233
       H     4.33170    6.74063   -3.83680
       O     4.17113    6.40424   -2.89485
      H1     5.10412    6.44937   -2.61162
       H     6.02900   11.27731   -8.26560
       O     6.60322   11.25848   -7.49093
      H1     6.71222   10.31492   -7.27802
       H     7.77533    6.36735   -1.39435
       O     6.89716    5.97256   -1.56554
      H1     7.08104    5.04986   -1.76268
       H     4.69842   17.70836   -6.46684
       O     3.69966   17.67428   -6.35381
      H1     3.42779   17.01881   -7.02312
       H     4.51028   11.78203   -9.42390
       O     4.83512   10.92379   -9.69044
      H1     5.69361   11.08337  -10.12327
       H     5.35719   11.61945   -4.22003
       O     6.19008   11.41239   -4.66011
      H1     5.96617   11.57122   -5.60764
       H     9.12776   12.51807   -0.01715
       O     9.80153   12.74481   -0.63886
      H1     9.49801   12.35077   -1.44170
       H     9.52445   11.32657   -5.66951
       O     9.49615   11.79296   -4.79246
      H1     8.95140   12.50754   -5.03298
       H     5.93753    5.61245   -9.32533
       O     6.41051    6.13257  -10.02862
      H1     7.27121    5.64664   -9.99890
       H     5.43739   14.98072   -2.85962
       O     6.36373   15.07948   -2.52080
      H1     6.54296   14.12803   -2.28884
       H     3.11100    6.79759   -8.87819
       O     2.71150    7.61471   -9.18358
      H1     3.11745    7.77405  -10.07819
       H    10.37820    8.54867   -2.42519
       O    10.92666    8.57374   -1.57684
      H1    11.07091    9.49412   -1.45995
       H     7.11521    7.87394  -11.98104
       O     7.75599    8.47530  -12.32074
      H1     8.12219    8.87495  -11.50791
       H    10.10344    9.09163   -5.11947
       O     9.82746    8.56550   -4.39304
      H1     9.95733    7.67253   -4.82280
       H     8.18120    8.95322   -4.82985
       O     7.38212    9.03026   -5.30836
      H1     7.11405    9.92079   -4.96074
       H    10.36963   11.62603   -8.52137
       O    11.10333   11.33038   -9.07143
      H1    11.13224   12.20075   -9.55205
       H     0.81677    7.16030   -5.06711
       O     1.49888    7.34820   -5.76075
      H1     0.95319    7.14246   -6.56933
       H     9.33776   17.77704   -6.97521
       O    10.19663   17.49751   -6.65220
      H1    10.01523   16.91948   -5.86487
       H     6.40892   13.99110   -9.03739
       O     6.25866   14.76925   -8.43633
      H1     6.29353   14.37190   -7.55468
       H     8.88787    7.23493   -8.10192
       O     9.81172    6.82866   -8.11722
      H1    10.02508    6.85560   -7.17200
       H     9.37852    7.94995   -1.03138
       O     8.58383    7.63200   -0.60272
      H1     7.87320    8.20851   -0.85270
       H     3.74134    8.66278   -1.14956
       O     2.98921    8.01911   -1.16880
      H1     3.33395    7.42547   -1.89187
       H     7.86499   13.24811   -6.67382
       O     7.70100   13.74196   -5.79276
      H1     7.02533   13.23074   -5.31788
       H     6.55018   14.58368    1.64561
       O     6.97266   14.12245    0.86267
      H1     7.65538   14.82693    0.67341
       H     2.80661   13.56078  -12.37026
       O     3.78375   13.48488  -12.21016
      H1     3.93652   12.51667  -12.22911
       H     3.44844   12.90471   -7.97216
       O     3.48821   12.97879   -8.91834
      H1     3.72322   13.86684   -9.02570
       H    11.76442   10.09665   -6.42336
       O    10.79794   10.21267   -6.59727
      H1    10.81181   10.18391   -7.56239
       H     3.39473   16.25160   -3.31627
       O     3.79018   15.91504   -4.15068
      H1     3.88328   16.78072   -4.51656
       H     1.89162   10.27814   -4.52524
       O     2.57635    9.97488   -3.99332
      H1     2.28276    9.44233   -3.25257
       H     3.13024   12.77488   -5.62767
       O     3.93704   12.53097   -6.17423
      H1     3.65876   11.59683   -6.38808
       H     5.59236   18.67890   -9.20628
       O     5.99592   17.90554   -8.87237
      H1     5.62030   17.14566   -9.39115
       H     6.33046   19.19551   -5.97404
       O     6.20134   18.30321   -5.52599
      H1     5.47115   18.48683   -4.85872
       H     3.78996    9.19775   -7.61725
       O     3.66450    9.23981   -6.66343
      H1     2.78411    8.84681   -6.46261
       H     1.42932   15.61227   -7.50021
       O     1.78488   16.45854   -7.84282
      H1     1.77217   16.35971   -8.76708
       H     9.37783   16.34262   -1.84512
       O     9.78000   16.77317   -2.64694
      H1    10.68922   16.78971   -2.29637
       H     0.05833   11.19425   -6.66103
       O     0.50990   10.93162   -5.85758
      H1    -0.22158   11.15988   -5.24887
       H     6.95921   18.00834   -1.47635
       O     6.35757   17.37390   -1.03901
      H1     6.47947   16.63635   -1.64311
       H     3.98298    6.28023   -6.99412
       O     3.84617    5.53968   -7.64095
      H1     2.95028    5.20816   -7.39578

