180
frame 1 | Written by MDAnalysis XYZWriter (release 2.4.3)
       H    -2.08339    0.30751  -13.76316
       O    -1.78295   -0.19542  -12.98367
      H1    -2.58808   -0.06488  -12.40380
       H    -2.26060   -3.40530  -13.67061
       O    -2.57066   -2.58535  -14.13136
      H1    -2.22224   -1.88933  -13.52383
       H    -3.73235    1.81550  -18.06244
       O    -2.87288    1.90502  -17.60226
      H1    -2.47412    1.12991  -17.92287
       H    -6.55692    2.18083  -17.77719
       O    -7.24455    1.96856  -17.11002
      H1    -7.17386    1.00382  -17.18414
       H     2.10720    1.76726   -9.19494
       O     1.28520    2.36570   -9.37354
      H1     1.04508    2.02070  -10.26651
       H    -4.52760    5.15186  -18.58582
       O    -3.59091    5.02340  -18.93979
      H1    -3.14350    4.56485  -18.27372
       H    -2.59275    3.44743  -12.42915
       O    -3.33351    3.86900  -12.95683
      H1    -4.12378    3.56809  -12.50782
       H    -4.90631    1.42085  -14.78435
       O    -5.85723    1.35651  -14.74381
      H1    -6.16472    1.50638  -15.63542
       H     4.68315    0.80507  -13.31982
       O     4.04883    0.49255  -12.63595
      H1     3.77901    1.35979  -12.19806
       H    -5.41739   -2.01032  -15.03338
       O    -5.24185   -1.30301  -15.67614
      H1    -5.25981   -0.51158  -15.15426
       H     1.37935    4.21070  -13.49714
       O     2.22642    3.88294  -13.13737
      H1     1.97826    3.22624  -12.46652
       H    -4.33446   -1.02243  -17.79945
       O    -4.34797   -0.64886  -18.70925
      H1    -5.08297   -1.20544  -19.03627
       H     0.72438   -2.59236  -12.67530
       O     0.60599   -3.00698  -11.77008
      H1     1.12537   -3.76557  -11.88317
       H    -1.35895    4.16593  -10.73234
       O    -1.53601    3.23610  -10.91238
      H1    -1.92311    2.92672  -10.05169
       H     1.39876    1.48417  -13.68441
       O     1.76288    1.58490  -14.60958
      H1     2.14776    2.44426  -14.51135
       H    -0.33348    0.94077  -12.45750
       O     0.24600    1.70621  -12.16913
      H1    -0.45630    2.32398  -11.74057
       H     4.02935   -1.86381  -19.12780
       O     3.17743   -1.67109  -19.57429
      H1     2.88482   -2.54161  -19.83811
       H    -7.03179   -5.77310  -12.94580
       O    -6.30890   -5.19838  -12.58656
      H1    -6.60898   -5.13985  -11.71379
       H     3.69205   -6.51908  -18.67899
       O     4.58452   -6.86769  -18.87565
      H1     4.65085   -7.02799  -19.83863
       H    -3.33179   -5.39995  -11.85344
       O    -3.34936   -6.28778  -11.41362
      H1    -4.09637   -6.29366  -10.73865
       H     0.88865   -1.76861   -8.53957
       O     0.67668   -1.33661   -9.34056
      H1     0.51212   -1.95272  -10.05201
       H    -0.45205    4.47932  -18.52491
       O    -0.70637    4.85133  -17.68713
      H1    -0.61521    4.05921  -17.09817
       H     3.03261   -4.10139   -9.67526
       O     2.24393   -4.57288  -10.06951
      H1     1.66935   -4.59539   -9.28991
       H     3.24932    1.98883  -20.19744
       O     2.64994    1.90547  -19.46404
      H1     3.13107    1.25502  -18.91824
       H    -8.37273   -2.82209  -13.78283
       O    -7.76478   -2.03608  -13.51806
      H1    -7.23994   -2.30330  -12.75678
       H    -1.02902   -7.83197  -12.73154
       O    -0.35531   -7.08050  -12.75134
      H1     0.36370   -7.36381  -12.20284
       H     4.07336   -4.59408  -14.86965
       O     4.21194   -5.43747  -15.23590
      H1     5.17680   -5.49639  -15.26415
       H     2.18151   -6.14572  -10.79862
       O     2.16801   -7.01544  -11.21573
      H1     2.63967   -6.83001  -12.05532
       H     2.60853   -0.23796  -17.34864
       O     3.19698    0.36996  -16.91083
      H1     2.53872    0.78923  -16.25917
       H    -0.89666   -2.11700  -16.48620
       O    -1.22195   -3.00110  -16.52647
      H1    -1.67658   -3.09155  -15.65687
       H     2.42580   -2.16622  -11.48508
       O     3.25878   -1.98056  -11.97023
      H1     3.17091   -1.03071  -12.08928
       H    -0.29168    0.35185  -19.56401
       O    -1.11323    0.18207  -19.00156
      H1    -1.35066   -0.74587  -19.19684
       H    -3.26850    2.26163  -15.64269
       O    -3.14881    1.70952  -14.83165
      H1    -3.16522    2.46307  -14.24684
       H    -3.07816   -7.20487  -16.19352
       O    -3.96558   -7.41002  -15.81963
      H1    -4.42313   -7.85976  -16.55397
       H     5.91675   -2.71160  -10.63306
       O     5.42576   -1.88881  -10.47181
      H1     4.62674   -2.09172  -11.04630
       H    -1.10283   -4.08560  -12.03110
       O    -1.74429   -4.52522  -12.65075
      H1    -1.40883   -5.45132  -12.56347
       H     0.36116   -6.37339  -15.79519
       O     0.33538   -7.27920  -15.46472
      H1     0.09450   -7.04337  -14.52287
       H     1.13874    4.68328  -17.09283
       O     1.71404    4.53838  -16.32104
      H1     2.24650    5.34376  -16.28971
       H    -2.69362   -3.44324  -17.36970
       O    -3.35848   -3.61775  -18.06502
      H1    -3.33930   -2.90392  -18.70234
       H     1.25573   -5.59976  -18.83815
       O     2.11079   -5.27875  -18.50844
      H1     2.28341   -4.60722  -19.21181
       H    -1.33537   -9.25700  -16.92491
       O    -1.49969   -8.31871  -17.19386
      H1    -1.15595   -7.77145  -16.41681
       H    -4.15000   -1.04081  -12.04564
       O    -3.87600   -0.46075  -11.37048
      H1    -4.42529    0.31083  -11.32279
       H     3.95448   -2.69539  -13.58026
       O     4.32785   -2.89030  -14.41753
      H1     4.69349   -2.05129  -14.77934
       H     5.90542   -1.37090  -18.65891
       O     5.59112   -2.19960  -18.20219
      H1     6.23277   -2.90554  -18.50974
       H    -7.95503    0.09711  -15.22268
       O    -7.79622   -0.51620  -15.97549
      H1    -6.95308   -0.90698  -15.73059
       H     1.57475   -8.87714  -14.88718
       O     2.11172   -9.47302  -14.29959
      H1     1.47205  -10.14988  -14.06346
       H    -4.23186   -8.25436  -13.64187
       O    -5.11776   -8.16383  -13.30041
      H1    -4.98366   -7.22725  -13.10512
       H     0.46153    5.06666  -15.20846
       O    -0.01690    5.13432  -14.34739
      H1    -0.65751    5.83285  -14.56492
       H    -4.33329   -2.83665  -13.80517
       O    -4.99236   -2.64651  -13.12398
      H1    -5.56690   -3.43042  -13.18402
       H     0.06842    2.20366  -15.52450
       O    -0.41777    2.45146  -16.36553
      H1    -1.26938    1.94019  -16.25275
       H    -3.98859   -1.88533  -10.08596
       O    -4.50736   -2.72809   -9.85401
      H1    -3.83234   -3.28574   -9.50078
       H     4.08669   -6.94521  -13.80112
       O     3.91923   -7.68156  -13.15969
      H1     3.20435   -8.19554  -13.61437
       H    -6.52492   -2.72943  -18.13126
       O    -6.62700   -2.23574  -18.96404
      H1    -6.62893   -3.02117  -19.57985
       H     4.73583   -0.34194  -16.46283
       O     5.45378   -0.76038  -15.89479
      H1     5.82861   -1.35196  -16.57123
       H     0.40365    0.44679  -16.54957
       O     0.22259   -0.50077  -16.72414
      H1    -0.32887   -0.31906  -17.53776
       H    -6.20952   -4.95587  -16.34539
       O    -6.06333   -4.35902  -17.13957
      H1    -5.15376   -4.06154  -17.08487
       H     1.21122   -4.79737  -16.87233
       O     0.75648   -4.77847  -16.03036
      H1     0.04612   -4.11471  -16.16869
       H    -4.94358    3.39713  -19.02433
       O    -5.17220    2.52679  -18.63746
      H1    -5.35930    2.05366  -19.47414
       H    -7.49154   -6.67815  -15.91765
       O    -7.08279   -6.41554  -15.11517
      H1    -6.65809   -7.27534  -14.78624
       H     1.25155   -3.16561  -14.91612
       O     0.83656   -2.37831  -14.50503
      H1     0.76314   -1.74022  -15.30064

