180
frame 100 | Written by MDAnalysis XYZWriter (release 2.4.3)
       H    15.18251   -4.54195   10.59362
       O    14.85878   -4.82139    9.76829
      H1    14.06448   -5.37703   10.03565
       H    12.74789   -5.62920   18.13627
       O    12.26168   -5.85122   17.35248
      H1    11.67161   -5.06714   17.34680
       H    14.58078   -5.58786   19.17273
       O    13.77082   -5.18419   19.43268
      H1    13.97259   -4.23981   19.21052
       H     8.02750   -8.17801    9.47647
       O     8.29967   -9.04551    9.69427
      H1     8.20425   -9.57216    8.91379
       H     6.57282   -5.61092    8.25889
       O     7.20728   -6.27546    8.60107
      H1     8.06604   -5.90832    8.31911
       H     6.01847   -0.75559   13.95883
       O     6.66998   -1.44688   14.06847
      H1     7.24143   -1.32890   13.29196
       H    12.27108   -2.56574    7.57427
       O    11.60992   -2.42423    6.87360
      H1    11.84652   -1.49035    6.65165
       H    10.71486    0.03163   12.90214
       O     9.88274   -0.04924   13.41015
      H1    10.02259   -0.97973   13.61935
       H     7.37886    1.28048   18.50577
       O     7.66489    2.00225   17.93544
      H1     7.30980    1.75234   17.05356
       H     5.90907   -2.99341   13.90014
       O     5.34797   -3.76468   14.17649
      H1     4.40275   -3.50768   14.07830
       H     2.99791   -0.51911   15.29328
       O     3.25789   -1.01057   16.10036
      H1     4.25465   -0.92323   16.13400
       H    12.20538   -5.14818   12.84664
       O    12.09210   -5.01922   13.77050
      H1    12.96803   -4.87137   14.09676
       H    10.20594    0.39116   15.23797
       O    10.56266    1.13733   15.70062
      H1    10.73466    1.67591   14.91886
       H    14.35803   -2.97082   12.07489
       O    13.45125   -2.67375   12.04982
      H1    13.41955   -1.86956   12.54861
       H     8.92765   -9.96342   11.22104
       O     9.52644  -10.60901   11.65464
      H1     9.38875  -10.47277   12.58889
       H    11.06968   -3.32698   13.95118
       O    10.34328   -2.72007   13.90320
      H1     9.65254   -3.33272   13.66206
       H    14.54543   -2.09117   18.02493
       O    14.38316   -2.52737   18.93614
      H1    13.45833   -2.39042   18.98121
       H    10.83938    2.25579   18.10391
       O    10.54492    1.53991   18.68614
      H1     9.60506    1.67167   18.51484
       H     7.05710    1.68164   12.48354
       O     6.19142    1.89013   12.76096
      H1     5.87154    2.62070   12.18864
       H     4.91953   -7.77044   15.56308
       O     4.98900   -8.46663   16.25197
      H1     4.87322   -8.00009   17.05994
       H     7.27863   -4.69329   18.67435
       O     6.61691   -4.21319   18.17657
      H1     6.69751   -3.32842   18.47972
       H     8.98954    1.65482   10.53312
       O     9.24194    2.49808   10.15180
      H1     9.76858    2.21945    9.36019
       H    12.24585    0.22116   11.24730
       O    12.40512    0.11909   12.23300
      H1    12.47317    0.99215   12.48277
       H     7.89187   -5.19137   13.80692
       O     8.24101   -4.88244   12.97507
      H1     8.71469   -5.71501   12.72543
       H    15.91835   -4.64324   12.65287
       O    15.87959   -3.87387   12.07683
      H1    16.80960   -3.56405   12.12876
       H     3.58392   -2.54701   11.40352
       O     2.60141   -2.60229   11.59394
      H1     2.56341   -2.96062   12.41924
       H     5.81872   -8.35364   11.12052
       O     5.08572   -8.54759   10.50518
      H1     5.17931   -9.51278   10.56954
       H    14.30925   -2.21998   15.64394
       O    14.79428   -1.41397   15.84263
      H1    14.08049   -0.75282   15.93484
       H     8.90964    0.02504   11.99179
       O     8.38233    0.03722   11.18325
      H1     8.56364   -0.82311   10.80477
       H     9.92217   -5.05913    8.27814
       O     9.67338   -4.55356    7.50005
      H1    10.36408   -3.84775    7.54205
       H     4.31706   -5.89887   10.51042
       O     3.42605   -6.04517   10.26433
      H1     3.02990   -5.30933    9.76661
       H     2.96642   -2.26196   14.94343
       O     2.73626   -3.07369   14.37065
      H1     2.18871   -3.61855   14.95436
       H    14.60138   -6.88041   13.26918
       O    15.25193   -6.27439   13.64227
      H1    15.70439   -6.84812   14.23593
       H    11.13385   -7.20464   14.51536
       O    11.64531   -8.01352   14.67478
      H1    11.93448   -7.83362   15.58355
       H    14.67862   -4.58277   15.10586
       O    13.99455   -4.19048   15.57762
      H1    14.00510   -4.50340   16.50686
       H     9.47752   -1.94282    8.75967
       O     9.17170   -1.01838    8.77493
      H1     9.93400   -0.54278    9.10417
       H    10.46438   -7.28184    7.55831
       O    10.51189   -7.00338    8.48065
      H1    10.69032   -7.85656    8.87833
       H     6.68162   -5.03646   11.63864
       O     6.14433   -5.07021   10.87068
      H1     6.70821   -5.60180   10.32407
       H    11.32972    3.21331   12.68615
       O    11.83533    2.58260   13.31086
      H1    12.55397    3.16621   13.73959
       H    15.64149   -0.94961   14.10301
       O    15.61180   -0.67199   13.16437
      H1    16.46659   -0.23359   12.98905
       H     6.71820   -0.59754   17.22158
       O     5.97229   -0.69048   16.61767
      H1     6.43783   -0.95104   15.81056
       H     7.04449   -1.49325    6.71688
       O     6.78917   -1.00935    7.53616
      H1     7.60930   -1.04312    8.00678
       H    12.61602   -8.24641   13.22882
       O    13.16176   -8.04292   12.38241
      H1    13.84714   -8.74085   12.39863
       H    12.09171   -0.91288    9.44536
       O    11.85658    0.01234    9.39712
      H1    12.71733    0.29553    8.97859
       H    12.99757   -7.65590   17.96800
       O    13.42796   -8.52887   18.03754
      H1    12.90011   -8.94847   18.83114
       H     8.95281   -7.58754   12.58934
       O     9.63646   -7.04952   12.28077
      H1     9.88621   -7.64466   11.55400
       H    15.26511    0.08809    9.89444
       O    15.56706   -0.82728    9.65086
      H1    14.83297   -1.41212    9.74460
       H    11.95347   -6.52852    9.74995
       O    12.50017   -6.18941   10.45346
      H1    12.39499   -6.89823   11.15826
       H    10.15600   -0.79749   17.94030
       O     9.71147   -1.57246   18.30400
      H1     9.94261   -2.27274   17.70589
       H     6.35514   -7.76115   13.20274
       O     6.92530   -8.24906   12.56015
      H1     6.75939   -9.11532   12.88861
       H     4.00573   -6.99224   13.45595
       O     4.73383   -6.83280   14.05237
      H1     4.89787   -5.88160   14.01014
       H    12.56553   -3.08737   10.02376
       O    13.04386   -2.92774    9.19544
      H1    13.80972   -3.51287    9.39669
       H    10.84850   -2.58115   11.47746
       O    10.53540   -2.85658   10.62321
      H1     9.55524   -2.96996   10.75664
       H    15.32802    2.17340   13.70322
       O    14.46101    2.03876   13.32322
      H1    14.44332    1.10710   13.12463
       H     8.00495   -3.53115   12.06564
       O     8.00511   -2.68033   11.60533
      H1     7.12491   -2.70349   11.18539
       H    13.91603    1.70892   15.30416
       O    13.63765    1.21202   16.06091
      H1    12.66158    1.05457   15.93188
       H     9.66961   -4.57773   16.84193
       O    10.43505   -3.99678   16.67157
      H1    10.40450   -3.64270   15.72797
       H     6.29349   -4.92257   15.18837
       O     7.12847   -5.18488   15.58960
      H1     6.75243   -4.93939   16.47933
       H     8.81249   -9.40120   14.97824
       O     9.41547   -9.44122   14.22758
      H1    10.22272   -9.06379   14.71209
       H     5.36395   -3.17819   10.38332
       O     5.13164   -2.36687   10.82093
      H1     5.00662   -1.75020   10.05913

