180
frame 5 | Written by MDAnalysis XYZWriter (release 2.4.3)
       H    13.82117  -18.43131   -3.62393
       O    13.50280  -18.34550   -4.57288
      H1    13.20214  -19.23834   -4.73658
       H    16.83472  -17.27266    3.68605
       O    16.35649  -17.36539    2.83035
      H1    15.47130  -17.23242    3.13696
       H     8.27747  -15.61050    5.09746
       O     8.68540  -14.93462    5.74205
      H1     9.55016  -14.72255    5.20758
       H    10.85357  -12.68347   -4.42313
       O     9.86889  -12.67240   -4.47653
      H1     9.74219  -12.41679   -5.41213
       H    15.44388  -16.25270   -2.63860
       O    16.16866  -15.65920   -2.80394
      H1    16.84385  -16.14988   -2.39022
       H    13.22320  -14.58879   -2.89381
       O    13.42270  -15.33889   -2.32615
      H1    12.77536  -15.97896   -2.72026
       H     2.81453  -17.68382   -2.09295
       O     3.52542  -18.25617   -1.78116
      H1     3.55028  -18.09756   -0.86237
       H     6.23970  -18.52483    5.94073
       O     6.60746  -18.66888    6.79311
      H1     6.55045  -19.65408    6.93963
       H     3.96580  -14.45706   -2.53265
       O     4.51778  -13.60805   -2.64704
      H1     5.41895  -13.97827   -2.70302
       H     7.52425  -13.36129    2.43095
       O     8.33388  -12.90971    2.20972
      H1     8.28801  -12.26135    2.92041
       H    10.78286  -16.83784    7.12043
       O     9.83426  -16.85077    7.38608
      H1     9.44008  -16.22249    6.74170
       H    12.20380  -13.75466    0.59588
       O    13.06302  -13.33845    0.90548
      H1    12.69038  -12.44248    1.15569
       H    11.13685  -16.21422   -4.20880
       O    11.51883  -16.79089   -3.55890
      H1    11.85170  -17.45127   -4.22529
       H     8.52791  -10.38247    4.46311
       O     7.85920  -11.10707    4.30907
      H1     7.21187  -10.60135    3.83570
       H    13.14006  -12.00045   -0.47005
       O    12.69849  -11.42913   -1.09589
      H1    11.76388  -11.51431   -0.82781
       H    12.31065  -17.40529   -7.37749
       O    12.90297  -16.83474   -6.82266
      H1    12.84406  -17.21403   -5.92110
       H     9.30486  -15.45296   -4.80862
       O    10.06789  -15.23942   -5.41475
      H1    10.26343  -14.33566   -5.12732
       H     8.16746  -15.32904   -7.75985
       O     8.84229  -16.03902   -7.59707
      H1     9.31072  -15.68995   -6.77840
       H    14.77195  -17.01913    6.13200
       O    14.96955  -17.95956    6.28731
      H1    14.37584  -18.22036    6.91016
       H    10.64745  -16.90948    0.13938
       O    10.53204  -16.59237    1.05140
      H1    10.47986  -15.63410    0.81583
       H    16.66625  -14.68330    0.93482
       O    17.16488  -14.75822    1.78459
      H1    16.72901  -15.52455    2.18616
       H     7.51119  -16.72918   -3.07391
       O     8.00560  -16.24117   -3.83068
      H1     7.31206  -16.00436   -4.47654
       H     4.53700  -14.75193    0.67189
       O     4.23148  -15.67808    0.60386
      H1     3.27424  -15.75227    0.79600
       H     9.11192  -17.79828    1.18222
       O     8.24064  -18.24353    1.04000
      H1     7.92525  -17.79598    0.23562
       H    16.02885  -13.61036   -2.85156
       O    16.08447  -12.86540   -3.47119
      H1    16.70069  -12.29004   -3.00978
       H    13.38437  -14.55863    2.12520
       O    13.47062  -15.41198    2.56211
      H1    13.64168  -16.08440    1.85030
       H     6.53841  -18.44345   -2.05717
       O     6.36290  -17.52760   -1.98870
      H1     5.40496  -17.48549   -2.08355
       H     4.92991  -12.16579    0.35678
       O     4.25133  -12.46959    0.96145
      H1     4.66588  -12.37654    1.82697
       H    13.25718  -12.46313   -4.20538
       O    12.69493  -12.83510   -3.46350
      H1    12.77363  -12.12980   -2.80006
       H    11.50916  -11.06866    2.68912
       O    11.92887  -11.01137    1.83901
      H1    11.26882  -10.50305    1.33668
       H     7.84254  -13.37492    6.31415
       O     7.13570  -12.70958    6.34175
      H1     7.41787  -12.14501    5.60486
       H     4.79193  -16.11953    2.30255
       O     5.06158  -16.04615    3.25473
      H1     4.25578  -16.36959    3.73248
       H     7.08755  -18.08232   -7.30753
       O     6.59939  -18.30920   -6.55115
      H1     5.69861  -18.12088   -6.87453
       H    14.41417  -14.64585    5.75617
       O    14.68062  -15.41058    5.19711
      H1    14.06556  -15.37608    4.44835
       H    13.18874  -18.93403    3.72275
       O    13.45456  -18.02815    4.01298
      H1    13.99993  -18.16364    4.78504
       H    15.25771  -18.81298   -1.77806
       O    14.71172  -18.07125   -2.05459
      H1    14.06707  -18.15177   -1.35956
       H    15.35577  -14.73616   -1.19494
       O    15.30541  -14.21097   -0.44829
      H1    14.39419  -14.04791   -0.24955
       H     5.88582  -13.19292    4.16534
       O     5.88232  -13.12622    3.23206
      H1     5.71060  -14.08296    3.02236
       H     9.16937  -11.00661   -3.98856
       O     8.37563  -10.51567   -3.68150
      H1     7.79111  -11.26079   -3.67907
       H    12.92354  -16.44912    7.44864
       O    12.31281  -17.02379    6.94431
      H1    12.19941  -17.64733    7.67163
       H     8.72379  -12.83226   -2.49003
       O     8.71759  -13.54888   -1.86750
      H1     8.60523  -14.27168   -2.49749
       H    11.24594  -15.06291    4.19003
       O    11.34611  -14.28602    4.80585
      H1    11.70630  -13.60835    4.24667
       H     6.83984  -16.68502    3.57805
       O     7.77679  -16.78201    3.74695
      H1     8.10470  -17.04065    2.89608
       H     9.08165  -19.67508   -5.71298
       O     9.40174  -19.01419   -5.02940
      H1     9.06382  -18.16811   -5.28064
       H    15.15877  -15.26661   -5.38210
       O    14.81145  -14.44978   -5.78578
      H1    15.41737  -13.81804   -5.40971
       H    10.99598  -16.88726    2.86690
       O    11.05446  -16.89105    3.83564
      H1    11.91683  -17.29601    3.97926
       H     9.22665  -10.20743   -0.75977
       O     9.94650  -10.84542   -0.64472
      H1     9.36154  -11.62187   -0.48879
       H    13.56968  -12.52691    7.27937
       O    13.72540  -13.45036    7.01130
      H1    13.07511  -13.53457    6.31409
       H    18.55119  -15.53366    1.33279
       O    19.22994  -15.87874    0.73374
      H1    20.06218  -15.61373    1.25901
       H     9.70023  -19.64418    6.09849
       O     9.91554  -19.86408    7.04190
      H1     9.92997  -18.98931    7.39995
       H     9.64387  -13.66675    1.29436
       O    10.22868  -13.89798    0.50530
      H1     9.61486  -13.89831   -0.27883
       H     5.13606  -11.89879   -4.16361
       O     6.10919  -11.92317   -4.24340
      H1     6.23263  -12.05087   -5.22082
       H    14.71706  -17.77286    0.64821
       O    13.90184  -17.24483    0.49067
      H1    14.13107  -16.57367   -0.16210
       H     5.61667  -16.58905   -5.90580
       O     5.70073  -15.65301   -5.66670
      H1     4.70767  -15.50624   -5.63252
       H    13.89477  -10.39834    1.61902
       O    14.82722  -10.35121    1.94669
      H1    15.29918  -10.99807    1.45765
       H    16.14479  -16.49996   -4.39606
       O    16.00984  -16.94759   -5.21889
      H1    15.23631  -17.48374   -4.97557
       H     3.80128  -18.96154   -3.37159
       O     4.34919  -19.48534   -3.98041
      H1     4.42337  -18.91453   -4.78807
       H    17.12940  -13.82186    3.57802
       O    16.72675  -13.53364    4.39731
      H1    16.22935  -14.30059    4.65121
       H    10.51327  -18.97034    4.07863
       O     9.55240  -19.24275    4.35968
      H1     9.14550  -18.36818    4.39235
       H    10.38659  -18.88042   -1.22032
       O    11.21584  -18.41185   -0.99334
      H1    11.23715  -17.76717   -1.71738

