180
frame 2 | Written by MDAnalysis XYZWriter (release 2.4.3)
       H     9.74708  -16.80847    7.64095
       O     8.80020  -17.07618    7.65574
      H1     8.35604  -16.40600    7.01650
       H    18.07210  -13.67527    6.71483
       O    17.35091  -13.58218    7.33725
      H1    16.62328  -14.05324    6.90756
       H    11.56978  -13.34763    1.81681
       O    12.52272  -13.04954    1.93224
      H1    12.34016  -12.33785    2.60093
       H    18.87832  -14.70839   11.70177
       O    18.76744  -13.78120   11.48395
      H1    19.00308  -13.37237   12.34681
       H    15.98811  -17.81190   14.21231
       O    15.10136  -18.18637   14.35230
      H1    14.68400  -17.47208   14.83025
       H    18.55706   -9.50143   11.48308
       O    19.47781   -9.38061   11.74654
      H1    19.87146   -8.79275   11.04831
       H    15.16242  -13.22804   12.74545
       O    15.37769  -14.04967   12.23650
      H1    15.49305  -13.62637   11.35491
       H    11.57663  -11.37314   10.89691
       O    11.05597  -11.25897   10.11258
      H1    10.29772  -10.75939   10.35638
       H    14.45267  -18.45232    5.65237
       O    14.03086  -19.38283    5.45408
      H1    13.71469  -19.56548    6.36709
       H    14.36551  -11.42157   13.38865
       O    15.00545  -11.99642   13.75025
      H1    14.54581  -12.40007   14.63624
       H    14.33832  -16.17356   17.01837
       O    14.94327  -16.47237   16.33840
      H1    15.29142  -15.65422   15.90730
       H    16.36269  -15.58171    0.32245
       O    16.57845  -15.17568    1.18938
      H1    16.30273  -15.87150    1.81349
       H    10.65498  -15.40719   11.21992
       O    11.25476  -15.59834   12.04187
      H1    12.13739  -15.45442   11.65179
       H    11.41578   -7.24308   10.85662
       O    11.02693   -7.32295   11.69861
      H1    10.74894   -6.41365   11.80465
       H    12.24305  -12.37750    9.07394
       O    12.84546  -13.10735    8.90438
      H1    13.64548  -12.64180    8.58390
       H    13.47248  -14.66649    2.66880
       O    13.59225  -15.59619    2.87583
      H1    12.71194  -15.87803    2.63502
       H    12.84806  -13.36792   15.32088
       O    13.73695  -13.25720   15.69218
      H1    13.56049  -13.21403   16.61312
       H    17.92063   -6.79661   12.65338
       O    17.65552   -7.02203   13.59689
      H1    17.39713   -7.95286   13.50632
       H    10.68331  -13.53119   14.36008
       O    11.18674  -14.20452   14.76555
      H1    11.31030  -14.78621   13.99630
       H    18.30112  -10.23873    8.64448
       O    17.95992   -9.63349    7.99491
      H1    17.28006   -9.18861    8.47793
       H    11.92188  -11.04058    4.15527
       O    12.08641  -10.50767    3.34654
      H1    11.75942   -9.65023    3.66967
       H    18.78636  -11.02155   13.53635
       O    19.11321  -11.94213   13.66634
      H1    20.06568  -11.79266   13.44122
       H    16.66166   -6.91141    5.12619
       O    17.15444   -6.65550    5.88881
      H1    17.52723   -5.78635    5.65740
       H    18.82911  -12.00003   10.15952
       O    19.33037  -11.42815    9.55022
      H1    19.75242  -10.72903   10.11260
       H    18.32637  -16.84897    8.20466
       O    17.60681  -17.47498    8.23806
      H1    16.80350  -16.95236    8.31974
       H    18.64801   -9.36658    4.54838
       O    19.16597   -8.91607    3.92605
      H1    18.75836   -8.10369    3.61922
       H    13.19470  -14.34180   10.21803
       O    13.44719  -15.18404   10.57965
      H1    14.18679  -14.89392   11.17208
       H    14.24159  -16.30946    4.95807
       O    15.10230  -16.67632    5.26477
      H1    15.42819  -17.02043    4.37412
       H    17.45997  -18.93890    3.76691
       O    17.58139  -18.15935    3.19345
      H1    18.55443  -18.26397    3.11302
       H    12.14889   -8.76314    7.78758
       O    12.37617   -8.81947    6.86079
      H1    12.88031   -8.03457    6.62204
       H    16.51816  -19.60513    5.84716
       O    17.21881  -18.93923    6.00948
      H1    16.96763  -18.44000    6.77756
       H     8.84462  -10.73384    7.44779
       O     8.66216   -9.77936    7.58045
      H1     9.24108   -9.45512    6.89165
       H    16.11937  -14.57502   13.65726
       O    16.52681  -15.10516   14.43027
      H1    17.06051  -14.39736   14.82441
       H    15.56562   -9.30624   14.79477
       O    16.21335  -10.00926   14.83832
      H1    15.78332  -10.71981   14.34186
       H    14.33418  -15.65194    7.82839
       O    14.68784  -16.35781    8.43827
      H1    14.23210  -16.15038    9.27377
       H    11.16600   -8.73362   13.04400
       O    11.19023   -9.64995   13.36474
      H1    10.54620   -9.52132   14.05739
       H    12.00705  -16.27454    6.98362
       O    11.51528  -17.03790    7.30789
      H1    11.88233  -17.30690    8.18991
       H    12.80079  -18.76103    9.81809
       O    11.98109  -18.26068    9.94067
      H1    12.11197  -17.76664   10.71914
       H    14.66879   -7.39251    9.20244
       O    15.18719   -7.94209    8.64965
      H1    15.41981   -7.33685    7.92648
       H    10.64765  -15.37685    3.93057
       O    10.51413  -14.53484    4.47845
      H1     9.82425  -14.05071    3.96568
       H    18.20263  -17.03024   11.95697
       O    19.06069  -16.61319   11.66651
      H1    19.46812  -17.18311   10.98131
       H    17.65666   -5.81338   10.13179
       O    18.20042   -6.26426   10.80860
      H1    18.91416   -6.67951   10.30364
       H    16.63560  -11.11059   10.71572
       O    16.89161  -10.20739   10.98006
      H1    16.17710  -10.07519   11.62185
       H    12.04891   -6.67180    8.71359
       O    11.93582   -7.53169    9.21064
      H1    10.98399   -7.57585    9.32726
       H     9.98124   -9.53864   11.85829
       O     9.12348   -9.57188   11.40780
      H1     8.73418  -10.42557   11.68164
       H    18.34083  -12.67946   15.49620
       O    17.65608  -12.34805   16.15161
      H1    17.45092  -11.48072   15.75316
       H    12.91315  -13.96198    7.20361
       O    13.07583  -14.45173    6.37552
      H1    12.24434  -14.16405    5.94503
       H    14.50288  -10.69001   10.63450
       O    14.16104  -10.32984   11.46163
      H1    13.54118   -9.64428   11.22558
       H    13.13332   -9.04157   14.25014
       O    13.98980   -8.71745   14.53033
      H1    13.68996   -7.86315   14.86938
       H    16.52873  -13.17120    9.22413
       O    16.45677  -12.94967   10.14417
      H1    17.26213  -13.43497   10.41869
       H    13.83712  -10.53222    2.96468
       O    14.84150  -10.51102    2.89380
      H1    15.13581  -11.33236    2.46125
       H    17.86651  -11.47398    6.41226
       O    17.78515  -11.36255    5.42906
      H1    17.35456  -12.19826    5.28457
       H    17.28916  -16.64762   14.04828
       O    17.48372  -17.45631   13.47788
      H1    18.41762  -17.70047   13.69820
       H    15.64342   -9.87890    4.53529
       O    15.90670   -9.44823    5.34992
      H1    16.62509  -10.07411    5.54788
       H    16.80332  -13.06395    2.30644
       O    16.95510  -12.34761    1.65620
      H1    17.74588  -11.82360    2.00714
       H    18.24015  -16.76037    5.10378
       O    18.19706  -15.79888    5.36472
      H1    18.34922  -15.83551    6.35658
       H    17.09783  -14.24664    4.58978
       O    16.29726  -13.79007    4.42053
      H1    15.58158  -14.36369    4.69006
       H    12.48277  -19.92537   12.23567
       O    13.28466  -19.34445   12.14140
      H1    13.41975  -19.03691   13.06991
       H    15.90831  -10.57333    7.53877
       O    15.26611  -10.61084    8.27658
      H1    14.96789   -9.72179    8.25936
       H    11.94105  -16.84637   13.27722
       O    12.23045  -17.01509   14.18446
      H1    12.03545  -17.94574   14.31766

