180
frame 1 | Written by MDAnalysis XYZWriter (release 2.4.3)
       H    -2.19839    4.30313    4.29800
       O    -2.31666    5.22365    3.94601
      H1    -2.93823    5.63556    4.47999
       H    -2.11658   13.40500   -2.61021
       O    -2.02306   13.55447   -1.65220
      H1    -1.99452   14.52469   -1.57825
       H     0.34395    5.50941    5.92371
       O     0.79122    4.64263    5.99891
      H1     1.27173    4.60096    5.17954
       H    -3.51261    8.29768    9.99295
       O    -3.05425    7.48337    9.65507
      H1    -2.60667    7.84057    8.87834
       H    -3.16159   15.19964    7.09839
       O    -2.43637   14.94734    6.46468
      H1    -1.65639   14.94622    7.13304
       H    -0.77167   12.04806   -1.76225
       O    -0.47804   11.19150   -1.41699
      H1     0.18735   10.81417   -2.02393
       H    -5.09925    8.65962    7.81563
       O    -5.85462    9.11369    7.41342
      H1    -6.63042    8.51924    7.62525
       H    -0.71227   11.14233    5.61295
       O    -0.54952   10.26989    5.23091
      H1    -0.80905   10.40157    4.29625
       H    -0.44181   12.33292    8.66448
       O    -0.67549   12.35232    9.61444
      H1    -0.00519   11.70245    9.86309
       H    -5.03712    5.04513    7.69777
       O    -4.20420    5.52676    7.72985
      H1    -4.42499    6.24197    8.31213
       H    -3.51380   13.64918    5.44912
       O    -4.14345   12.93913    5.27370
      H1    -4.25641   12.47152    6.10560
       H    -5.31410   16.54450    6.25023
       O    -5.33801   15.64076    6.51030
      H1    -5.50457   15.29757    5.58581
       H     4.12862   14.49045    1.76663
       O     3.71169   13.89247    2.34412
      H1     4.29129   13.93581    3.11144
       H     0.98115   11.87622    2.36730
       O     1.32249   11.02035    2.74764
      H1     0.84919   10.47301    2.08924
       H    -4.10588    8.60859    0.79632
       O    -4.59944    9.42156    1.21545
      H1    -4.30587    9.42083    2.14196
       H    -0.54537   13.65168    3.03812
       O    -0.99616   14.00372    3.77235
      H1    -1.76719   14.42642    3.41351
       H    -4.53663   11.72081   -0.24783
       O    -5.37600   12.06502   -0.56904
      H1    -5.94704   11.78080    0.09984
       H     4.76226   11.40008    0.66639
       O     5.25062   11.76717   -0.11625
      H1     5.93720   12.30503    0.32029
       H    -5.22786    7.08562    3.80689
       O    -5.21697    6.11058    3.99635
      H1    -5.32789    5.77117    3.08169
       H    -6.17001    8.73756    0.94176
       O    -7.13380    8.69621    0.65760
      H1    -7.41483    7.86054    1.08091
       H     4.34900    9.75216    2.32672
       O     3.87238   10.43899    1.88911
      H1     2.99537   10.33125    2.38186
       H    -2.54925    9.98439   -0.26246
       O    -2.11976    9.12630   -0.52953
      H1    -1.27109    9.45185   -0.83795
       H     2.42168   13.31754   -1.50750
       O     1.77383   13.98150   -1.24902
      H1     1.58725   13.70199   -0.34517
       H    -1.27878    6.32285    0.30460
       O    -1.63975    6.22870   -0.58602
      H1    -1.87108    7.16454   -0.71592
       H     1.99755   14.28520    5.06346
       O     1.19902   14.01554    5.45216
      H1     0.60767   14.06236    4.71192
       H    -0.32307   13.13772    6.37741
       O    -0.92670   12.48033    6.78628
      H1    -1.74125   12.81160    6.44976
       H    -6.21556    9.16651    5.32769
       O    -6.21986    8.97296    4.34511
      H1    -6.30424    9.87619    3.97362
       H    -1.55782    7.60683   10.29313
       O    -0.65404    7.36657   10.65418
      H1    -0.02808    7.46665    9.92066
       H    -3.59266   16.04252    2.94198
       O    -3.23329   15.15494    2.83421
      H1    -3.75777   14.99076    1.98014
       H     3.05859   12.36853    7.88780
       O     2.43192   11.63722    7.61778
      H1     2.37759   11.52964    6.68792
       H    -1.29588    9.28858    1.31765
       O    -0.80957    9.60669    2.08815
      H1    -0.62491    8.75099    2.49922
       H    -5.57400   11.22325    7.65424
       O    -4.99040   11.95614    7.89350
      H1    -5.57805   12.72788    8.06778
       H    -2.00849   13.50323   10.38489
       O    -2.75863   13.87192   10.89477
      H1    -2.80654   14.80154   10.61684
       H     2.53994    7.35469    1.59889
       O     1.96354    6.59846    1.71475
      H1     2.21928    6.15983    2.56211
       H     5.11925   12.60912    7.21326
       O     4.62654   13.33677    7.58728
      H1     4.37730   13.77352    6.72550
       H     0.22682    6.26239    2.00861
       O    -0.70957    6.48090    1.96209
      H1    -1.04873    6.03102    2.72843
       H    -6.64303   12.88385    5.26894
       O    -6.99587   12.02668    4.78881
      H1    -7.98416   11.97275    5.09086
       H    -5.13708   14.14648    4.15855
       O    -6.02720   14.62811    4.20686
      H1    -6.05395   15.12002    3.38720
       H     2.96559    4.76143   -0.75149
       O     2.17771    5.37572   -0.88186
      H1     2.17102    5.75657    0.02149
       H     4.51535    5.69489    5.10674
       O     3.88629    6.31566    4.64252
      H1     3.54395    6.88224    5.34764
       H     1.18902   13.21369   10.04191
       O     1.66588   14.05013    9.82856
      H1     1.22798   14.32836    9.05432
       H     4.59473    9.69403    6.56157
       O     5.39458    9.97661    6.14329
      H1     5.99096    9.62377    6.81359
       H     5.81024    9.20098    4.51340
       O     5.42727    8.95278    3.64850
      H1     5.11023    8.02727    3.72088
       H    -0.12924    7.43371    6.46797
       O    -0.90930    7.32242    7.04398
      H1    -1.53690    7.86718    6.58764
       H     0.21453   16.15188    7.96724
       O     0.23069   15.21729    7.62806
      H1     0.79927   15.28396    6.83967
       H    -2.23183   10.77268    9.13463
       O    -2.90951   10.20855    8.75583
      H1    -3.55600   10.94279    8.66276
       H     3.83433    8.70441   -0.61509
       O     2.99633    8.36690   -0.29714
      H1     3.13119    7.41596   -0.33470
       H    -2.79999   11.24836    1.39145
       O    -2.91027   11.45120    0.46604
      H1    -2.17424   12.12350    0.36248
       H    -2.72628    9.40889    7.30251
       O    -2.69766    9.07838    6.41044
      H1    -1.93590    9.58860    6.05761
       H    -5.16578   15.11178    0.75257
       O    -4.28617   14.63305    0.58848
      H1    -4.59574   13.79598    0.18465
       H     3.76324   15.74602    5.36620
       O     3.91909   14.77553    5.36142
      H1     4.87136   14.74116    5.30085
       H    -0.57692   16.49236    4.85694
       O    -0.26101   17.35746    5.06054
      H1    -0.98814   17.67511    5.62308
       H     0.37761    7.88173   -2.40866
       O     0.67808    8.68761   -1.93930
      H1     1.43686    8.37216   -1.33167
       H     2.71051    7.63602    6.95011
       O     2.15902    7.57057    6.12414
      H1     2.22758    8.44438    5.78426
       H     3.49851   10.73391    5.24426
       O     2.61541   10.31499    5.27798
      H1     2.16486   10.82960    4.56575
       H    -3.85504   10.79542    4.04399
       O    -3.48491    9.92799    3.90497
      H1    -3.46360    9.58975    4.80407
       H     0.61422   14.43120    1.62259
       O     1.04037   13.55548    1.53629
      H1     1.93125   13.68214    1.87301
       H     2.55799   10.21186   10.21849
       O     1.71152   10.71125   10.13269
      H1     1.89017   11.03158    9.24449
       H     0.53210   16.37948   -0.04419
       O     0.03991   16.30061    0.75281
      H1    -0.86805   16.03611    0.43665
       H     5.05318   11.37236    3.24976
       O     5.65212   12.03331    3.69566
      H1     6.45658   11.46922    3.82777

