180
frame 10 | Written by MDAnalysis XYZWriter (release 2.4.3)
       H     7.57017  -16.06448    4.35907
       O     7.92086  -15.34640    4.85037
      H1     8.84317  -15.64274    4.91549
       H     4.22220  -17.66331   -2.08846
       O     4.79966  -18.29540   -1.67414
      H1     4.50224  -18.32520   -0.72785
       H     5.74184  -16.90974    5.73550
       O     5.68492  -17.26615    6.70704
      H1     6.59542  -17.71741    6.79957
       H     1.41850  -12.85546   -0.54261
       O     2.02907  -13.29097   -1.18907
      H1     2.89110  -12.82801   -0.95868
       H     6.12218  -12.80335    1.89452
       O     6.66095  -12.24526    1.40226
      H1     7.09108  -11.65727    2.04121
       H    -1.41958  -13.75357    4.02890
       O    -1.85427  -13.05204    3.53523
      H1    -2.34290  -12.54097    4.20408
       H     9.88169  -17.59253    6.55472
       O     8.93384  -17.58166    6.83655
      H1     8.54830  -16.87900    6.32325
       H     1.95237  -14.41200    8.07264
       O     2.24022  -13.46860    7.98427
      H1     1.71423  -13.25453    7.15739
       H    12.25093  -13.97107    2.91319
       O    11.63470  -13.66130    3.60027
      H1    11.30295  -12.85443    3.19770
       H    -1.29464  -15.17609    8.57054
       O    -0.67842  -14.56872    8.18884
      H1    -0.50153  -14.92239    7.29760
       H     4.01780  -13.23776    8.45725
       O     4.84437  -12.85040    8.78343
      H1     4.91212  -11.92064    8.54068
       H     9.15051  -11.06614    4.29285
       O     8.56622  -11.50161    3.64323
      H1     7.62704  -11.35188    3.90584
       H     0.49126  -19.33013    5.59035
       O     0.23596  -18.84730    6.40108
      H1    -0.57433  -18.36084    6.05219
       H     1.46308   -8.34439    5.88024
       O     1.10199   -8.21397    4.97257
      H1     1.77010   -8.65594    4.40654
       H     4.99460   -9.43081    6.95443
       O     5.07471   -9.10646    6.02090
      H1     5.25622   -9.90862    5.45281
       H     4.86559  -19.72135    3.50436
       O     4.18638  -19.07930    3.39796
      H1     4.34265  -18.82040    2.49264
       H     9.62735  -16.69030   -0.16800
       O     9.49001  -16.71877    0.79863
      H1     9.35314  -15.77244    0.92423
       H     6.74268  -15.14442   -2.86066
       O     6.82279  -14.72201   -3.69692
      H1     5.89375  -14.56644   -3.90920
       H     7.50572   -9.50216    0.86004
       O     8.27083   -9.09730    0.49809
      H1     8.77288   -9.87739    0.17564
       H     5.21142   -7.74202    1.53302
       O     5.65924   -8.30317    2.19838
      H1     5.08131   -8.13265    3.01316
       H     3.05198  -16.03404   -2.87709
       O     2.71695  -16.89208   -2.55278
      H1     1.78663  -16.74630   -2.87712
       H     1.28612  -11.69392    1.38946
       O     0.62292  -12.43552    1.22611
      H1    -0.06929  -12.38288    1.94622
       H     7.15232  -15.70112    1.44006
       O     6.62788  -16.49377    1.39680
      H1     6.81215  -16.62662    0.46139
       H     3.94819  -17.52228    7.87310
       O     3.22825  -17.38921    8.57296
      H1     3.17019  -18.25815    8.97920
       H     7.75517  -16.83583   -1.55997
       O     6.88007  -16.37004   -1.47599
      H1     6.26858  -17.05248   -1.64015
       H     2.77371  -17.33680    3.20525
       O     2.19107  -16.60424    3.49874
      H1     2.41316  -16.60991    4.44535
       H     4.38431  -11.08960   -0.29801
       O     4.33067  -11.98608    0.06894
      H1     5.22720  -12.15987    0.32130
       H     9.65561   -8.77330    5.97301
       O     9.93286   -9.58152    5.53195
      H1    10.72417   -9.21674    5.03987
       H    10.54183  -10.95223    2.76311
       O    11.26178  -10.86928    2.12699
      H1    10.80776  -11.27738    1.34864
       H     0.48852   -8.81544    1.27685
       O     1.25399   -9.28108    0.96417
      H1     1.72699   -9.66089    1.72318
       H     7.54712  -13.81896    6.06787
       O     7.80862  -12.89403    6.09859
      H1     8.22657  -12.75417    5.27509
       H     1.95551  -13.75177    2.40975
       O     2.79265  -14.19878    2.59745
      H1     2.61350  -15.09112    2.95084
       H     0.68607  -11.91149    5.16813
       O     0.77379  -12.46354    5.93225
      H1     0.09308  -12.14174    6.50924
       H     6.30100  -12.01921    5.25551
       O     5.89770  -11.46154    4.56721
      H1     5.29270  -12.10684    4.14809
       H     8.98812  -19.30827    1.12889
       O     8.13707  -19.24958    0.68586
      H1     7.82701  -18.36552    0.87858
       H     9.69508  -12.14617    6.73106
       O    10.64832  -12.22234    6.88164
      H1    10.91395  -11.34596    7.17232
       H     5.53580  -15.07629   10.01308
       O     5.69532  -14.95908   10.95977
      H1     5.73757  -13.94619   11.09283
       H     5.34543  -14.75220    3.14290
       O     5.29635  -13.77449    3.10147
      H1     4.36074  -13.71902    3.01249
       H    10.55440  -14.70557   -1.77702
       O     9.64763  -14.72216   -1.46616
      H1     9.17888  -14.40284   -2.25236
       H    10.79967  -16.19965    3.88088
       O    10.65480  -15.77225    4.74781
      H1    11.07303  -14.90157    4.59562
       H     6.32924  -16.87979    2.94932
       O     6.17063  -17.11929    3.94729
      H1     5.58733  -17.85596    3.84037
       H     1.15091  -16.81218    6.11461
       O     1.99318  -16.37019    6.31476
      H1     2.33208  -16.89012    7.05336
       H    10.53636  -17.14847    2.12012
       O    11.24796  -17.53288    2.65276
      H1    12.01891  -17.32930    2.08012
       H    -0.63283  -10.70699    4.38543
       O    -0.07111  -10.59193    3.60385
      H1     0.37115   -9.72996    3.87066
       H    -0.17671  -13.88762   -1.49187
       O    -0.96258  -14.39345   -1.29969
      H1    -0.98279  -14.43753   -0.35977
       H    10.13504  -11.57109   -1.21791
       O    10.39100  -11.98984   -0.35698
      H1    10.50858  -12.96275   -0.55096
       H     9.12854  -13.52558    9.31941
       O     9.50974  -12.61758    9.28689
      H1     9.96282  -12.52825    8.43233
       H     4.57758   -8.72794    0.00887
       O     3.99101   -9.31569   -0.45806
      H1     3.08543   -9.13874   -0.11635
       H     6.05337   -9.36625   -1.90885
       O     6.54758  -10.23387   -1.93217
      H1     6.12673  -10.76668   -2.66683
       H     7.90222  -13.53329    1.31258
       O     8.30156  -14.37460    1.12081
      H1     8.34680  -14.36314    0.14956
       H     5.04821  -12.82718   -3.63020
       O     5.56316  -12.01584   -3.66792
      H1     6.34228  -12.24413   -4.17058
       H     4.15206  -16.83732    0.81599
       O     3.93400  -17.79499    0.94407
      H1     2.93304  -17.70292    0.83505
       H     4.12756   -9.95141    2.21727
       O     3.48160  -10.65059    2.15984
      H1     3.77529  -11.13628    1.34007
       H     8.24778  -17.36083   10.05368
       O     8.75613  -16.62295    9.70332
      H1     8.54037  -16.63287    8.76107
       H    -1.14271  -15.95236    4.76574
       O    -0.77093  -15.18035    5.28779
      H1     0.13122  -15.32130    4.89388
       H     6.76189   -8.05860    5.77145
       O     7.35754   -7.27621    5.80571
      H1     7.86467   -7.50085    6.63747
       H    -0.38374  -18.21307    3.88902
       O    -0.49068  -17.38741    3.34584
      H1     0.44273  -17.37315    2.98109
       H     5.73037  -15.70875    7.63416
       O     6.17554  -15.03525    8.16848
      H1     5.64220  -14.21928    8.03172
       H     9.28635  -18.45745   -0.88089
       O     9.09667  -18.03812   -1.71700
      H1     9.94589  -17.64387   -1.98330
       H     4.88198   -9.59196    9.06219
       O     5.06329  -10.33211    8.51664
      H1     5.96105  -10.39522    8.68085

