180
frame 5 | Written by MDAnalysis XYZWriter (release 2.4.3)
       H    16.83472  -17.27266    3.68605
       O    16.35649  -17.36539    2.83035
      H1    15.47130  -17.23242    3.13696
       H    15.44388  -16.25270   -2.63860
       O    16.16866  -15.65920   -2.80394
      H1    16.84385  -16.14988   -2.39022
       H    13.22320  -14.58879   -2.89381
       O    13.42270  -15.33889   -2.32615
      H1    12.77536  -15.97896   -2.72026
       H    11.82293   -7.42558    1.94161
       O    12.39032   -6.91235    2.53584
      H1    12.25437   -5.98753    2.31895
       H    16.77064   -5.99633   -4.15411
       O    17.26645   -5.18104   -3.87846
      H1    17.71714   -5.60145   -3.16243
       H    16.98145  -13.96253    6.35744
       O    17.21659  -13.96341    7.28917
      H1    18.18809  -13.96413    7.18024
       H    12.20380  -13.75466    0.59588
       O    13.06302  -13.33845    0.90548
      H1    12.69038  -12.44248    1.15569
       H    17.05497  -11.30199   -0.96007
       O    17.58276  -11.40473   -1.77498
      H1    17.26370  -10.65096   -2.31299
       H    13.14006  -12.00045   -0.47005
       O    12.69849  -11.42913   -1.09589
      H1    11.76388  -11.51431   -0.82781
       H    12.74060   -5.83836   -1.89016
       O    12.64822   -4.83471   -1.96577
      H1    13.58541   -4.65503   -2.06396
       H    14.83073   -8.08954   -4.08677
       O    14.64155   -8.64987   -3.29744
      H1    13.98584   -8.07036   -2.88925
       H    15.74707   -6.57799   -6.29313
       O    15.52363   -6.74462   -5.34302
      H1    14.74260   -6.20421   -5.24315
       H    11.94866   -7.45728   -0.88760
       O    12.68667   -7.42322   -1.53996
      H1    13.38140   -7.42618   -0.89435
       H    18.07214  -12.61218   -7.08481
       O    18.97998  -12.68712   -6.66893
      H1    19.12118  -13.61327   -6.72099
       H    18.77082   -3.64965   -1.51472
       O    19.14368   -2.75306   -1.25435
      H1    18.64504   -2.17395   -1.93738
       H    17.88144   -7.53341   -0.42808
       O    17.68467   -8.34686   -0.89871
      H1    18.52291   -8.52361   -1.33102
       H    18.97548   -9.35363    2.39732
       O    19.07441   -9.15141    1.45581
      H1    18.30064   -8.54460    1.38841
       H    16.66625  -14.68330    0.93482
       O    17.16488  -14.75822    1.78459
      H1    16.72901  -15.52455    2.18616
       H    19.52949   -9.62354   -7.31904
       O    18.94189   -8.88824   -7.13701
      H1    18.15745   -9.19705   -6.64783
       H    17.05803   -2.85223    1.37517
       O    17.94308   -3.25779    1.28059
      H1    18.20361   -2.92475    0.46788
       H    13.61197  -10.42410    8.17109
       O    14.43840  -10.88855    8.02966
      H1    14.92817  -10.16896    7.61838
       H    16.02885  -13.61036   -2.85156
       O    16.08447  -12.86540   -3.47119
      H1    16.70069  -12.29004   -3.00978
       H    13.38437  -14.55863    2.12520
       O    13.47062  -15.41198    2.56211
      H1    13.64168  -16.08440    1.85030
       H    17.78208   -5.24773    1.09118
       O    18.26056   -5.99735    0.75066
      H1    19.00680   -5.99485    1.33823
       H    19.40907   -7.32457    3.65284
       O    19.29342   -7.94593    4.35916
      H1    18.36182   -7.83448    4.57426
       H    15.72914   -8.47373   -0.82860
       O    14.98021   -8.21394   -0.25654
      H1    15.07875   -8.88512    0.54714
       H    13.25718  -12.46313   -4.20538
       O    12.69493  -12.83510   -3.46350
      H1    12.77363  -12.12980   -2.80006
       H    19.38246  -11.15849    8.75949
       O    18.59341  -11.01753    8.15761
      H1    18.35600  -10.07512    8.29371
       H    11.50916  -11.06866    2.68912
       O    11.92887  -11.01137    1.83901
      H1    11.26882  -10.50305    1.33668
       H    17.70696   -7.76611    7.32232
       O    18.13580   -8.13362    8.13892
      H1    19.05364   -7.87731    7.89403
       H    18.69045  -18.34991   -0.92974
       O    18.51027  -19.16908   -0.44046
      H1    18.94575  -19.01215    0.40291
       H    15.76214  -10.90780   -7.09878
       O    15.51443  -10.56345   -6.24199
      H1    14.88943   -9.80796   -6.44715
       H    16.05121   -7.07511    3.09778
       O    16.42072   -6.22088    3.12729
      H1    16.31298   -5.89281    2.21789
       H    14.41417  -14.64585    5.75617
       O    14.68062  -15.41058    5.19711
      H1    14.06556  -15.37608    4.44835
       H    18.87292   -3.29467    3.07331
       O    19.33086   -2.96551    3.81784
      H1    19.47081   -1.99101    3.55074
       H    12.51995   -7.08225    5.68449
       O    12.64042   -7.87195    5.15301
      H1    12.39547   -7.46825    4.30941
       H    15.25771  -18.81298   -1.77806
       O    14.71172  -18.07125   -2.05459
      H1    14.06707  -18.15177   -1.35956
       H    15.35577  -14.73616   -1.19494
       O    15.30541  -14.21097   -0.44829
      H1    14.39419  -14.04791   -0.24955
       H    16.06903   -4.30683   -2.49278
       O    15.30024   -4.17839   -1.96853
      H1    15.29282   -3.27504   -1.64199
       H    19.79340   -5.14496   -2.08096
       O    18.88897   -5.53244   -1.89297
      H1    18.79343   -5.41523   -0.95942
       H    11.24594  -15.06291    4.19003
       O    11.34611  -14.28602    4.80585
      H1    11.70630  -13.60835    4.24667
       H    15.15877  -15.26661   -5.38210
       O    14.81145  -14.44978   -5.78578
      H1    15.41737  -13.81804   -5.40971
       H    15.40624   -6.42905    0.25329
       O    15.47301   -5.49994    0.51144
      H1    15.61914   -5.07980   -0.32596
       H    16.62868  -10.41317   -4.80140
       O    17.00852   -9.89464   -4.04090
      H1    16.17707   -9.55882   -3.66305
       H     9.22665  -10.20743   -0.75977
       O     9.94650  -10.84542   -0.64472
      H1     9.36154  -11.62187   -0.48879
       H    13.56968  -12.52691    7.27937
       O    13.72540  -13.45036    7.01130
      H1    13.07511  -13.53457    6.31409
       H    18.55119  -15.53366    1.33279
       O    19.22994  -15.87874    0.73374
      H1    20.06218  -15.61373    1.25901
       H     9.64387  -13.66675    1.29436
       O    10.22868  -13.89798    0.50530
      H1     9.61486  -13.89831   -0.27883
       H    10.38688   -6.00602   -0.10927
       O    10.53769   -6.95721   -0.06731
      H1     9.74934   -7.44020   -0.28631
       H    14.71706  -17.77286    0.64821
       O    13.90184  -17.24483    0.49067
      H1    14.13107  -16.57367   -0.16210
       H    20.06833   -9.41215   -5.30731
       O    19.86461   -9.64049   -4.36608
      H1    18.87674   -9.63784   -4.43111
       H    13.89477  -10.39834    1.61902
       O    14.82722  -10.35121    1.94669
      H1    15.29918  -10.99807    1.45765
       H    18.32710  -11.73060    6.38443
       O    18.75940  -11.80159    5.52281
      H1    18.17996  -12.54100    5.16560
       H    16.14479  -16.49996   -4.39606
       O    16.00984  -16.94759   -5.21889
      H1    15.23631  -17.48374   -4.97557
       H    15.97583   -9.89785    3.44082
       O    16.40891   -9.32039    4.11017
      H1    17.03235  -10.01844    4.42627
       H    14.25420   -4.89023    2.37362
       O    13.73346   -4.04004    2.46295
      H1    13.22162   -4.08340    1.62318
       H    17.73445  -12.23575    1.01820
       O    17.15965  -11.51696    0.91281
      H1    17.77163  -10.82571    1.01627
       H    18.79484  -17.15746    4.55565
       O    18.90706  -16.21106    4.33533
      H1    19.25743  -15.89433    5.18680
       H    17.12940  -13.82186    3.57802
       O    16.72675  -13.53364    4.39731
      H1    16.22935  -14.30059    4.65121
       H    15.56034   -9.02831    6.00601
       O    15.49257   -8.74950    6.94550
      H1    14.58937   -8.34821    6.89007

