180
frame 0 | Written by MDAnalysis XYZWriter (release 2.4.3)
       H    19.08033  -11.15756   13.19677
       O    19.99293  -11.63484   13.14576
      H1    19.80167  -12.57619   13.10723
       H     8.20204  -11.01260   10.80171
       O     8.76839  -11.67326   10.39092
      H1     8.32338  -12.47501   10.70115
       H    18.40386  -10.88826   15.01925
       O    18.49601  -11.27390   15.88154
      H1    17.76187  -11.91948   15.88235
       H    11.14061  -18.90546   11.12937
       O    11.14746  -19.77547   10.67250
      H1    11.97900  -19.92136   10.19615
       H     7.84228  -17.81469   11.93522
       O     7.43271  -18.42469   11.31652
      H1     7.69595  -19.30844   11.57462
       H     5.99258  -18.07019   17.81967
       O     6.88670  -18.42877   17.75433
      H1     7.37724  -17.73732   17.33984
       H     8.79596  -14.68830   13.21702
       O     9.44172  -15.32698   13.62540
      H1     9.03815  -15.58625   14.47505
       H    16.44202  -17.97964   18.74830
       O    15.58975  -18.47200   18.69204
      H1    14.98323  -17.72553   18.41367
       H    19.08660  -13.99953   17.21861
       O    18.16617  -14.24815   17.27084
      H1    18.18461  -14.79677   18.08865
       H    13.88136  -17.37153   14.29724
       O    13.89706  -17.84454   15.14535
      H1    13.04511  -17.73639   15.54782
       H    12.25001  -13.94326   15.34204
       O    11.32085  -14.03798   15.69509
      H1    10.72259  -14.09668   14.93310
       H    18.15213  -17.26542   17.48151
       O    18.09138  -16.93444   18.38749
      H1    18.87349  -17.32779   18.79666
       H     4.88715  -14.62605   19.60188
       O     5.71228  -14.91483   19.13918
      H1     5.54942  -14.71218   18.19460
       H    18.45538  -11.28110    8.59856
       O    17.72750  -11.51229    9.24187
      H1    18.10019  -12.26504    9.80643
       H    13.12877  -11.79985   14.77905
       O    13.00695  -11.13991   14.09248
      H1    12.46353  -11.56154   13.42129
       H    15.81044  -16.57988   12.47866
       O    16.36813  -17.12622   11.94888
      H1    17.23235  -17.23353   12.40607
       H    17.88473  -14.25516   11.48005
       O    18.27285  -14.00621   10.67199
      H1    19.19123  -14.17041   10.62426
       H    10.29524  -16.54929   12.43570
       O    10.78405  -17.37490   12.19883
      H1    10.53520  -17.97594   12.94578
       H    17.33018  -17.45587   15.70831
       O    18.00603  -18.11211   15.88273
      H1    17.67853  -19.02488   16.01198
       H    13.34459  -12.85803   17.58961
       O    13.28301  -12.21651   16.88213
      H1    13.96762  -11.52262   16.98024
       H    13.01424  -14.85423    9.95432
       O    13.10098  -13.90049   10.12374
      H1    12.18519  -13.58819    9.88127
       H    10.56683   -8.55901   16.78380
       O     9.97085   -8.25082   16.10818
      H1     9.13412   -7.89294   16.48041
       H    12.89280   -7.31846   15.12694
       O    12.26803   -6.58838   15.19137
      H1    11.55742   -6.99712   15.62155
       H    12.28465  -10.14543   17.29661
       O    11.60976   -9.54734   17.60231
      H1    10.90263  -10.24020   17.73442
       H    12.65832   -9.45144   19.07889
       O    13.29423   -9.24982   19.77018
      H1    13.62699   -8.33531   19.64276
       H    13.50544   -9.65930   10.14238
       O    13.69164  -10.48807    9.63737
      H1    12.96457  -11.10382    9.71532
       H     9.98285  -12.39794   18.72363
       O    10.11044  -12.07851   17.81647
      H1    10.31612  -12.76917   17.18664
       H    14.25033   -9.00176   15.69169
       O    13.92619   -8.74266   14.83189
      H1    13.53241   -9.58217   14.51729
       H     7.32526  -17.12680    8.34727
       O     7.92409  -16.95258    9.06551
      H1     7.69418  -17.56015    9.77376
       H     6.88289  -12.15393   18.55172
       O     7.00657  -11.79279   17.68918
      H1     7.93109  -11.95772   17.56754
       H    10.98190  -12.00928   11.49373
       O    11.60750  -12.46575   12.09130
      H1    12.32128  -12.75207   11.48412
       H     7.90801  -16.76078   15.43343
       O     8.21040  -16.20751   16.18926
      H1     7.54429  -15.53448   16.31074
       H    15.23336  -13.19201    9.17494
       O    15.61606  -12.84956    8.31992
      H1    16.39830  -12.34241    8.69000
       H    14.71152  -14.37419   15.12952
       O    14.01863  -14.10644   14.55292
      H1    14.44920  -13.86352   13.70222
       H    17.10777  -18.91387    8.82590
       O    17.26113  -19.82425    9.05573
      H1    17.42667  -19.78750   10.02559
       H    17.46776   -9.00760   19.07524
       O    17.33083   -9.73895   18.47733
      H1    18.04715  -10.37503   18.63305
       H    15.60843   -9.74849   17.53544
       O    14.63204   -9.76869   17.37912
      H1    14.36805   -9.68086   18.32248
       H     7.28550  -12.63144   12.74099
       O     7.59861  -13.49890   12.39997
      H1     6.77809  -13.90912   12.23436
       H    10.98155  -17.09722   16.97813
       O    11.17857  -16.84800   16.05284
      H1    11.10346  -15.90333   16.05812
       H    13.73411  -16.50095   10.69541
       O    13.88401  -16.80049    9.76982
      H1    14.74183  -16.34157    9.47232
       H    11.40882  -17.51007   19.06768
       O    11.02232  -18.16022   18.55382
      H1    11.64894  -18.94362   18.55961
       H    14.53366  -14.31609   19.48299
       O    13.70669  -14.16557   18.92734
      H1    12.98420  -14.53931   19.44260
       H    19.63913   -9.13367   16.40927
       O    19.15817   -8.51468   16.95816
      H1    18.48956   -9.14296   17.38413
       H     9.31238  -19.47753   15.01207
       O     9.98636  -18.96088   14.57210
      H1    10.19278  -18.27569   15.17993
       H    15.43643  -12.30314   12.11750
       O    15.37941  -13.26529   12.07201
      H1    14.68007  -13.48469   11.48810
       H    13.94037  -18.53362    9.11930
       O    13.86095  -19.24637    8.49874
      H1    13.91659  -20.03036    9.03467
       H    12.38215  -16.69878   12.42739
       O    13.26698  -16.24794   12.61693
      H1    12.93806  -15.52118   13.17606
       H    17.01357  -15.08325    9.62052
       O    16.52337  -15.89917    9.44523
      H1    16.67519  -16.48677   10.23417
       H    17.14727  -14.93742   15.97722
       O    16.41515  -15.37695   15.45571
      H1    15.91611  -15.83099   16.20522
       H    17.97507   -9.00452   13.99506
       O    17.94293   -9.86783   13.52530
      H1    17.33394   -9.72070   12.81799
       H     9.69376   -9.74992   15.13015
       O     9.41149  -10.38515   14.48287
      H1    10.12098  -11.00288   14.34381
       H     6.42144  -13.32770   16.84399
       O     6.12733  -14.23135   16.55398
      H1     5.46141  -14.05079   15.79482
       H     7.63630  -10.95423   14.16678
       O     6.79351  -11.09430   13.70684
      H1     6.12550  -11.03808   14.43875
       H    19.43629  -17.12074   12.01074
       O    18.90522  -17.05037   12.83691
      H1    19.46810  -17.17814   13.56734
       H     6.60975  -18.62868   14.38167
       O     6.94934  -17.72619   14.20269
      H1     6.13292  -17.23458   13.92980
       H    17.13525  -16.74788    7.86580
       O    17.18608  -17.29139    7.07235
      H1    16.28298  -17.51346    6.83012
       H    12.77720  -18.19771    7.58812
       O    12.50261  -17.51427    6.93936
      H1    12.22010  -17.98961    6.09779
       H    15.30139  -10.32546   10.94967
       O    15.82526  -10.32098   11.76599
      H1    15.41895   -9.71631   12.33501
       H    14.09166  -16.65380   16.80882
       O    14.59891  -16.17798   17.46481
      H1    14.07239  -15.49574   17.91717
       H    10.11602  -12.17930    9.15985
       O    11.00356  -12.45373    8.81891
      H1    10.86424  -13.08133    8.12182

