180
frame 3 | Written by MDAnalysis XYZWriter (release 2.4.3)
       H    13.93487  -16.51109  -18.29723
       O    14.75613  -16.54107  -18.82612
      H1    14.53181  -17.19051  -19.49007
       H    17.01706   -6.91649  -17.05315
       O    16.06612   -6.90550  -17.28497
      H1    15.80079   -7.82627  -17.26741
       H    14.49801   -9.14276  -13.58446
       O    14.36092   -9.40233  -14.48872
      H1    13.94865   -8.71170  -15.00429
       H     6.92387  -17.26555  -10.73561
       O     7.81254  -17.72239  -10.84533
      H1     8.33155  -17.23909  -10.14232
       H    10.52257   -6.77244  -17.75336
       O    11.20255   -6.91235  -18.41356
      H1    10.74011   -7.01363  -19.25143
       H     6.46888  -19.46230  -14.17094
       O     5.70350  -19.33111  -13.61837
      H1     5.13384  -18.80152  -14.31096
       H    17.16657  -15.96910  -11.92709
       O    16.38367  -16.28240  -11.44501
      H1    16.23642  -17.15744  -11.70060
       H    14.78236  -19.59055  -17.14137
       O    15.70088  -19.24574  -17.04653
      H1    15.43246  -18.33691  -16.98898
       H    12.93814  -10.84763   -9.29469
       O    13.51481  -11.04382   -8.52585
      H1    13.67142  -10.14567   -8.11698
       H    12.07346  -12.42248  -20.15290
       O    11.82248  -11.66186  -19.57125
      H1    12.09400  -12.00803  -18.71608
       H     5.11736  -17.37922  -16.39746
       O     4.50327  -17.66621  -15.70768
      H1     4.46636  -16.78933  -15.20763
       H     3.60619  -14.86128  -14.39012
       O     3.91361  -15.56399  -13.74859
      H1     4.81067  -15.31839  -13.51856
       H    15.42343  -16.40538  -15.18733
       O    14.66337  -16.79700  -14.65681
      H1    15.03983  -17.44255  -14.00051
       H    11.21280  -13.63552  -15.63710
       O    11.99737  -14.12076  -15.82672
      H1    12.32637  -14.31231  -14.91710
       H     9.27744  -17.50340  -13.90902
       O     8.56338  -16.90620  -13.57846
      H1     8.75200  -16.88829  -12.63448
       H    10.89605   -9.53721  -10.54087
       O    11.47950  -10.28723  -10.62421
      H1    11.13510  -10.85096  -11.35386
       H    16.55078  -19.88652  -14.10801
       O    16.42604  -19.10832  -13.53861
      H1    15.64892  -19.41921  -12.98806
       H    11.98818   -7.85779  -17.27010
       O    12.28914   -8.02875  -16.33235
      H1    11.99874   -8.99374  -16.33226
       H    18.27085  -13.04541  -16.31064
       O    18.08309  -12.53981  -17.13932
      H1    17.15185  -12.40223  -17.03245
       H    11.32118  -15.78479  -10.68829
       O    11.37274  -15.39384  -11.56632
      H1    12.24540  -15.00993  -11.65274
       H    12.02333  -17.05528  -12.63469
       O    12.54374  -17.65271  -13.23077
      H1    13.22681  -17.02393  -13.50239
       H    10.03151   -9.13705  -14.19581
       O     9.24432   -8.86820  -14.69508
      H1     9.48922   -7.93689  -14.84507
       H     6.54278  -14.72814  -11.96726
       O     6.46420  -15.11520  -12.90903
      H1     7.21392  -15.74174  -12.88782
       H    18.05785  -15.07390  -17.92710
       O    18.23172  -15.22609  -18.87878
      H1    17.89250  -14.43819  -19.28014
       H    11.03485   -6.65078  -15.50770
       O    10.07370   -6.51442  -15.45914
      H1     9.89439   -6.12591  -14.59799
       H     8.83383   -9.33134  -16.76266
       O     9.13446   -9.98339  -17.48348
      H1     8.26838  -10.46755  -17.63876
       H    14.20627   -9.86728  -18.68534
       O    14.94107   -9.36719  -18.33141
      H1    15.26149   -9.96819  -17.57881
       H    14.10330  -13.86849  -13.88939
       O    13.47676  -14.57300  -13.55341
      H1    13.96487  -15.38899  -13.84582
       H    11.30728  -17.37861   -8.79937
       O    10.77783  -16.75214   -9.34039
      H1    10.32581  -16.38198   -8.60514
       H     8.95391   -8.11630   -9.64127
       O     8.90981   -8.82476  -10.32504
      H1     8.24691   -8.57887  -10.95923
       H     6.33180   -8.36691  -13.12418
       O     7.20785   -8.76098  -12.78819
      H1     7.72203   -8.74819  -13.66230
       H    15.77377  -13.83571  -11.13198
       O    16.24314  -13.10959  -11.52450
      H1    15.95159  -13.00973  -12.45722
       H     9.19815  -12.16351  -16.29456
       O     8.97246  -12.80186  -15.59719
      H1     8.15553  -12.46691  -15.25885
       H     7.00920  -10.22455  -19.19353
       O     6.86111  -10.95352  -18.56222
      H1     5.97702  -10.73038  -18.11889
       H    15.53080  -10.25063  -15.43538
       O    15.94985  -10.77069  -16.19420
      H1    16.90064  -10.55637  -15.97598
       H    12.47878  -10.81247  -16.58909
       O    11.57974  -10.65365  -16.23380
      H1    11.05725  -10.66307  -17.05069
       H     9.32786   -5.94047  -12.22097
       O    10.24123   -5.90326  -12.63023
      H1    10.58014   -6.81740  -12.62475
       H     8.68539  -15.29029  -16.01747
       O     7.81502  -15.73707  -16.07630
      H1     7.91206  -16.24993  -15.26637
       H    17.83409  -16.94041  -15.77396
       O    17.27615  -16.42342  -16.31272
      H1    17.21500  -16.96069  -17.11660
       H     6.52568  -14.40455  -15.59961
       O     5.72786  -13.81673  -15.80722
      H1     6.11575  -13.06148  -15.33419
       H    11.08060  -13.16788   -8.41165
       O    10.13220  -12.95562   -8.52156
      H1     9.75925  -13.76359   -8.05898
       H     6.69980  -10.90313  -14.15903
       O     6.82821  -11.89293  -14.09036
      H1     6.95619  -11.90184  -13.13165
       H     8.46759  -16.30050  -19.38621
       O     8.89122  -15.84111  -18.62025
      H1     8.31798  -15.88794  -17.83335
       H    11.44077  -17.36343  -17.89993
       O    10.77035  -17.83661  -18.39037
      H1    10.14172  -17.13184  -18.64002
       H    12.09790  -15.74293  -16.87260
       O    12.55888  -16.62305  -16.90869
      H1    13.17095  -16.51225  -16.18871
       H     6.19451  -18.72326  -18.79042
       O     6.18600  -17.85749  -18.32157
      H1     6.85019  -18.11244  -17.65182
       H    10.34029  -11.68700  -13.50750
       O    10.92008  -10.92239  -13.58902
      H1    11.04300  -10.82971  -14.55826
       H    18.72581  -14.19011  -14.01851
       O    18.31627  -13.48862  -14.56248
      H1    18.86273  -12.74878  -14.28389
       H    15.31228   -9.63701  -10.72351
       O    14.63461   -9.42377  -11.38579
      H1    13.89988   -9.90880  -10.94236
       H     6.92834  -13.28821  -10.50514
       O     6.55928  -14.18304  -10.38407
      H1     6.55451  -14.27445   -9.45254
       H    13.14584  -12.89742  -16.71334
       O    13.51561  -12.16967  -17.26217
      H1    14.07960  -12.60384  -17.95549
       H    12.56457   -7.36290  -11.72651
       O    12.01886   -7.93811  -12.31886
      H1    12.29125   -8.80764  -11.93530
       H    10.08768  -12.94380  -10.35212
       O    10.05448  -13.10295  -11.26560
      H1    10.45030  -13.99860  -11.32064
       H    15.23095  -14.56987  -18.89548
       O    15.01255  -13.63033  -19.09285
      H1    15.68680  -13.52014  -19.76725
       H    16.63271  -13.38406  -14.81645
       O    15.71308  -13.43638  -15.08463
      H1    15.49596  -12.55786  -15.38534
       H    13.59750  -18.74376  -11.70334
       O    14.52582  -18.66101  -11.48875
      H1    14.59773  -19.17671  -10.61898
       H     5.67356  -14.86626  -17.35248
       O     5.24023  -15.22825  -18.15268
      H1     5.78045  -15.93394  -18.38678
       H     4.06750  -11.72883  -17.01170
       O     4.58160  -10.93554  -16.97804
      H1     3.90728  -10.42490  -16.52658
       H     8.42885  -12.04725  -11.01124
       O     7.50451  -11.74447  -11.09069
      H1     7.54841  -10.98070  -10.52586
       H     4.57452  -11.48884  -11.87830
       O     4.89150  -10.65877  -11.53218
      H1     5.86681  -10.78679  -11.64713

