180
frame 3 | Written by MDAnalysis XYZWriter (release 2.4.3)
       H    -1.03980    1.49666   14.06053
       O    -1.35277    2.34032   14.43826
      H1    -1.39386    2.84417   13.62204
       H     6.22426    4.59219   17.47932
       O     5.89776    5.51725   17.35376
      H1     5.57603    5.71572   18.22209
       H     6.05316    3.65204   12.05613
       O     5.92087    3.34670   11.16312
      H1     5.28468    2.62551   11.33513
       H     4.69040    9.04607   15.15063
       O     3.78180    8.80262   14.95883
      H1     3.78330    7.90044   14.52303
       H    -2.10841    5.76503   18.48786
       O    -2.14517    5.27932   17.65314
      H1    -1.47736    4.52694   17.83438
       H     7.30035    1.56313   13.55678
       O     8.26413    1.52476   13.51115
      H1     8.39870    1.96285   12.66272
       H     1.97105    1.21771    7.01120
       O     1.84006    0.59586    7.77173
      H1     1.80269    1.21549    8.53615
       H     0.48364    2.81588   16.86061
       O    -0.44349    2.73046   17.13817
      H1    -0.78341    2.10532   16.47575
       H     7.79359    2.88695   10.91269
       O     8.74422    2.76056   11.14188
      H1     8.94542    2.02873   10.56917
       H     2.64733   -0.26055   14.78946
       O     3.38913    0.39641   14.69405
      H1     2.95103    1.23751   15.05862
       H     6.64461    2.00991   18.63977
       O     6.48312    1.47980   19.46869
      H1     7.11631    1.89267   20.10650
       H     5.73548    4.53809    9.87797
       O     5.32649    5.23132    9.30400
      H1     4.99948    4.62620    8.67760
       H    -1.37416    4.32199   10.55333
       O    -1.52499    3.63386    9.88363
      H1    -2.30982    3.99667    9.40992
       H    -1.87187    0.29508   16.75387
       O    -1.18390   -0.32997   16.49768
      H1    -0.48007   -0.20347   17.22524
       H     9.02743   -2.87551   15.97514
       O     8.33494   -3.48914   16.28286
      H1     8.88295   -4.31392   16.61685
       H     1.36998    3.45416    7.96337
       O     1.82076    3.19267    8.83737
      H1     1.78025    3.98571    9.32450
       H     2.39560   -1.51298   17.92903
       O     1.79384   -2.18866   17.70487
      H1     2.01368   -2.90387   18.32399
       H     4.49664    0.03364   10.51925
       O     4.95011   -0.78542   10.24592
      H1     5.53285   -0.88194   11.05101
       H     4.76563    2.52693    7.37721
       O     4.17050    3.34672    7.44312
      H1     3.55228    2.96597    8.09429
       H     0.13323   -0.36164    8.32995
       O    -0.62371   -0.94215    8.56842
      H1    -0.90016   -0.52501    9.34292
       H     4.55386    5.55824   12.29328
       O     4.16516    6.39144   12.59978
      H1     3.30584    6.17918   12.18648
       H     0.94577    0.16355   10.39755
       O     1.72503   -0.29605   10.69481
      H1     1.55711   -1.13741   10.25430
       H     5.04522   -0.22057   12.56081
       O     5.83868   -0.75753   12.70984
      H1     5.61116   -1.50790   13.31055
       H     1.55186    5.66355   11.44864
       O     2.18724    4.89481   11.25426
      H1     1.78634    4.21259   11.80556
       H     5.69466   -4.55871   17.65640
       O     5.19775   -5.09817   17.07324
      H1     4.96586   -4.50206   16.34873
       H     4.66870    4.82889   14.64455
       O     4.04416    4.91573   15.42573
      H1     4.73363    5.17166   16.04930
       H     4.12648    0.74500   18.01376
       O     3.60573    0.04087   18.40412
      H1     4.18990   -0.33992   19.10463
       H     7.34553   -3.20720   17.95638
       O     7.04217   -3.30355   18.87642
      H1     7.66849   -3.93761   19.33003
       H     0.42422    6.94818   16.38133
       O     0.15189    7.13292   15.51447
      H1    -0.80372    6.88456   15.46528
       H    -2.45358   -1.63835   17.31456
       O    -3.01080   -2.46267   17.28979
      H1    -2.38418   -3.11206   16.88984
       H     0.71244    4.13873   15.48805
       O     1.59744    3.80756   15.35092
      H1     2.23806    4.49781   15.29810
       H     0.74092   -3.21793   13.43905
       O    -0.23371   -3.40158   13.42350
      H1    -0.50038   -3.24051   12.52577
       H     0.46366    7.77740   18.25249
       O     1.13972    7.12124   17.93082
      H1     1.38769    6.80235   18.80177
       H     7.27052    2.48388   16.55654
       O     7.24826    3.11792   17.28244
      H1     8.13054    3.08059   17.61092
       H     1.66642    0.30728   18.59872
       O     0.65996    0.39563   18.60319
      H1     0.52801    1.32557   18.81156
       H     2.74779   -2.48143   12.95964
       O     2.14146   -1.79203   13.22672
      H1     1.89850   -1.44056   12.40463
       H    -0.05576   -1.08179   13.71955
       O    -0.36911   -0.18144   13.95195
      H1    -0.60188   -0.28996   14.93928
       H     3.24749    2.73433   17.31996
       O     3.84750    2.22358   16.72339
      H1     4.01509    2.97984   16.13791
       H     0.64940   -2.67567    9.42309
       O     1.58701   -2.76268    9.44602
      H1     1.93255   -2.57160    8.56655
       H    -0.69547   -3.47702   15.22125
       O    -0.71188   -3.57962   16.19024
      H1     0.20002   -3.34786   16.40251
       H     3.34030    0.73479   13.00020
       O     3.52275    1.09307   12.11058
      H1     2.82490    0.54480   11.64905
       H    -3.84175    0.48592   15.63815
       O    -3.52863    1.18843   16.25568
      H1    -3.78698    1.96014   15.74968
       H    -0.08953    1.97283   12.01063
       O    -0.44173    1.45955   11.26532
      H1    -0.82492    2.11323   10.70978
       H     1.82169   -5.89783   16.14334
       O     2.12136   -5.63746   15.22487
      H1     2.61212   -4.80021   15.37424
       H     5.55491    0.64135   15.93627
       O     6.48128    0.89010   15.74069
      H1     6.90089    0.06324   15.95918
       H    -1.99367    5.08710   12.79315
       O    -1.03275    4.99955   12.55356
      H1    -0.99813    5.59191   11.75690
       H    -2.80328    0.09075   11.20744
       O    -2.31302   -0.78770   11.25249
      H1    -1.57826   -0.46280   11.81209
       H     0.47498    7.76789   11.61032
       O     0.95231    7.52393   12.41371
      H1     0.20573    7.10522   12.92574
       H    -2.66011   -0.54964   13.88310
       O    -3.59882   -0.24317   13.83189
      H1    -3.85008   -0.97543   13.26617
       H     7.01157   -3.56200   14.56825
       O     6.24922   -3.36043   14.03471
      H1     6.47784   -3.79433   13.19573
       H     7.23680    4.69662   14.09061
       O     6.39892    4.70575   13.60789
      H1     6.47607    5.61044   13.20909
       H     2.17941    2.41118   12.87629
       O     1.26516    2.76347   12.88004
      H1     1.27623    3.22365   13.76010
       H     2.27648   -5.68380   18.00581
       O     2.82623   -4.94005   18.27067
      H1     3.66923   -4.98096   17.79688
       H     9.56107    0.42075   18.22449
       O     9.44653   -0.20265   17.50227
      H1     9.76027   -0.98651   18.03441
       H     3.46562   -2.65235   15.81211
       O     3.74396   -3.50628   15.42343
      H1     4.50775   -3.22937   14.91009
       H     9.00569   -0.56006   15.71123
       O     8.66107   -1.10335   15.00285
      H1     8.35062   -0.41592   14.38571
       H     8.33292    6.85154   15.50558
       O     8.16710    5.96744   15.80681
      H1     7.55378    5.99923   16.54296
       H     2.61934    2.78396   19.27006
       O     2.24148    3.47094   18.66331
      H1     2.62406    4.30629   19.05737
       H     4.19089   -3.91884    9.57505
       O     4.84284   -3.51284    9.06816
      H1     4.90923   -2.65225    9.43933
       H     2.55712   -4.95554   11.66034
       O     2.78020   -4.05118   11.51899
      H1     2.19768   -3.76631   10.81699

