180
frame 6 | Written by MDAnalysis XYZWriter (release 2.4.3)
       H     3.41635   13.19299   16.09209
       O     4.11246   13.42082   16.73997
      H1     4.93636   13.09121   16.26340
       H    -0.82731    9.16774    9.32679
       O    -1.50430    9.71332    8.89003
      H1    -2.30741    9.42545    9.19708
       H     4.55750   11.38093   16.81522
       O     4.38423   10.44046   16.71155
      H1     5.07085   10.03191   17.23756
       H    -7.85093   13.14784   14.67109
       O    -8.04224   12.91783   15.64405
      H1    -8.69385   13.52664   15.85631
       H     5.23561   12.25159   14.12105
       O     5.89348   12.14133   14.85958
      H1     5.83479   11.25644   15.20920
       H     3.97403   15.00429   18.06357
       O     3.65013   15.73829   18.54280
      H1     4.48420   16.23096   18.81994
       H     3.51671   12.68758   13.02318
       O     4.21810   12.10162   12.76550
      H1     4.08053   11.93796   11.84717
       H    -5.65303   15.57623   14.02643
       O    -6.32544   15.87689   14.59022
      H1    -7.07319   15.56081   14.05458
       H     2.42687   18.30717   13.96688
       O     2.07462   19.19384   13.82885
      H1     2.72073   19.76106   14.36270
       H    -2.55355   16.43609    8.86990
       O    -1.76356   16.77204    8.32368
      H1    -1.30316   16.01386    7.92134
       H     3.68291    6.27195   16.54804
       O     4.27881    6.84985   16.00772
      H1     3.72325    7.07639   15.27392
       H     3.92998   16.40485   13.66088
       O     3.06027   16.17203   14.01474
      H1     2.60190   15.78294   13.28463
       H    -4.36308   13.35769   19.23007
       O    -3.98427   12.65803   18.64950
      H1    -3.43574   12.12837   19.26900
       H     0.68811    5.91926    9.48538
       O     0.08573    5.56971   10.11692
      H1    -0.02036    6.27700   10.77969
       H    -4.66634    8.40107   10.02829
       O    -5.16687    7.93685    9.37782
      H1    -5.21310    8.59548    8.61564
       H     1.02694   14.29148   18.70269
       O     0.20174   14.68557   18.33225
      H1     0.28065   14.98037   17.40259
       H    -5.87437   11.72133   12.93866
       O    -6.66036   11.60946   12.36600
      H1    -6.30808   11.68483   11.44131
       H     3.98036   11.65753    6.96777
       O     3.06177   11.86858    7.12500
      H1     2.92598   11.69266    8.11462
       H    -1.26638   11.91239    9.31482
       O    -0.80253   12.68029    9.58927
      H1    -0.93473   13.17802    8.76795
       H    -0.75315   10.34562   12.59681
       O    -1.44307    9.77732   12.94037
      H1    -1.54752   10.05292   13.91346
       H    -3.66750   20.19973   14.75876
       O    -3.84317   19.37778   15.23594
      H1    -3.75464   18.71197   14.51849
       H    -4.83681    9.82213   12.03974
       O    -4.08779    9.62720   11.48619
      H1    -3.29969    9.71622   12.07228
       H     2.33071    9.59794   14.52033
       O     2.03861    9.45162   15.46988
      H1     2.85238    9.50715   16.01513
       H     4.75012   13.49124   10.35983
       O     4.52339   12.63580   10.02966
      H1     4.30649   12.71556    9.12752
       H    -1.47308   18.10239   11.21561
       O    -0.82649   17.64512   10.70906
      H1    -1.21230   17.38222    9.85909
       H    -0.80749   13.24680   17.63348
       O    -1.43616   12.55283   17.28497
      H1    -2.15900   12.56476   17.96670
       H    -0.46407   14.81895   15.27188
       O     0.17225   15.43083   15.67968
      H1    -0.30604   16.26147   15.83889
       H    -1.52256   14.12715    6.82174
       O    -0.76225   14.22792    7.42921
      H1    -0.02357   14.07588    6.82494
       H    -1.53706   12.53699   14.84721
       O    -0.88177   13.03189   14.36303
      H1    -0.71518   12.50564   13.57810
       H     0.49602   16.04613   11.53779
       O     1.25947   15.53255   11.82376
      H1     0.99579   14.61503   11.81293
       H     1.80260   16.58646   16.05609
       O     2.02404   17.27814   16.71288
      H1     2.55964   16.89842   17.45605
       H    -6.22639   15.09162   16.36197
       O    -5.47064   15.04645   16.97436
      H1    -4.68149   14.87758   16.45256
       H    -3.53104   15.52495   12.28136
       O    -3.68958   15.97043   13.11117
      H1    -3.06507   16.70815   13.05113
       H    -0.62968   17.72302   19.14128
       O    -1.20681   16.99844   18.88104
      H1    -0.59491   16.30831   18.81983
       H     2.50659   16.23506   10.86466
       O     3.20679   16.31094   10.22880
      H1     3.01728   16.16413    9.32725
       H    -0.60089    5.96268   18.36624
       O    -0.48669    6.36195   17.47897
      H1    -0.09601    7.19475   17.58667
       H    -2.46602    6.23369   14.95094
       O    -2.68406    6.25579   15.90584
      H1    -1.84713    6.22678   16.39839
       H     0.84689    8.29055    9.27326
       O     0.53207    8.73809   10.09023
      H1     0.52997    8.21157   10.91019
       H     1.11632    5.88731   15.43682
       O     1.29981    6.30094   14.64654
      H1     1.70638    7.19934   14.87387
       H    -2.19582   19.37334   12.87607
       O    -2.74137   18.82000   12.27710
      H1    -3.49987   19.34085   12.18012
       H     1.26766   11.91433   11.97811
       O     0.31705   12.21625   12.10984
      H1     0.01019   12.32359   11.19178
       H    -7.62926    8.71196   13.25123
       O    -8.19403    9.45163   12.86247
      H1    -7.56911   10.20456   12.94016
       H    -2.95706   11.04669   15.52830
       O    -2.32499   10.28432   15.57387
      H1    -1.60227   10.53507   16.14656
       H    -4.72933   15.29505    9.42473
       O    -4.05958   15.63733   10.07640
      H1    -4.35013   16.58366   10.08943
       H     6.05337   15.04225   10.82615
       O     5.33538   15.09314   11.44132
      H1     4.61290   15.42129   10.94730
       H    -2.40471   18.19943   16.17351
       O    -2.27633   17.24597   16.28286
      H1    -2.03131   17.16042   17.23456
       H     4.26564    7.06472   12.11696
       O     4.33631    7.94483   11.80792
      H1     5.16680    8.30183   12.10113
       H    -4.72911   12.58294   14.49817
       O    -4.81140   11.61198   14.37142
      H1    -5.21696   11.26919   15.16714
       H    -1.41144   10.31948    6.95835
       O    -1.42649   10.62096    6.08866
      H1    -2.28909   11.00132    6.02286
       H    -6.21494   12.52255    9.47591
       O    -6.08778   11.55658    9.66484
      H1    -6.89217   11.09728    9.45102
       H     0.52836   10.29056   16.78569
       O    -0.19188   10.33477   17.37603
      H1    -0.46239   11.27770   17.30289
       H     0.13671    6.60726   13.23855
       O    -0.08697    7.10400   12.42194
      H1    -0.64340    7.79535   12.75872
       H     0.22367   19.17328   13.97885
       O    -0.65709   19.52630   14.10075
      H1    -0.98557   19.27489   14.95753
       H    -2.62726   14.01084   16.00598
       O    -3.40094   14.19141   15.37013
      H1    -3.07074   14.90507   14.81439
       H     3.14141    9.30556   12.48474
       O     2.62893    9.95645   13.04294
      H1     3.35353   10.52785   13.31223
       H     2.54496   14.51657   14.44802
       O     2.35397   13.56153   14.32902
      H1     1.38205   13.58978   14.44868
       H    -5.44158   11.88489   17.48094
       O    -6.09806   11.40654   16.97368
      H1    -6.71942   12.10793   16.71079
       H     0.55716   11.53085    9.31789
       O     1.47234   11.29330    9.64552
      H1     1.34169   10.40938    9.91804
       H    -5.48188    9.90874   16.42565
       O    -5.12130    9.10535   15.95244
      H1    -4.18930    9.26542   15.83560
       H    -4.72870    8.35497   17.82767
       O    -4.47900    8.63394   18.72287
      H1    -5.21628    9.00755   19.18107

