180
frame 12 | Written by MDAnalysis XYZWriter (release 2.4.3)
       H    -1.60997   -8.70220  -10.89603
       O    -1.95831   -7.89878  -11.24547
      H1    -1.85650   -7.34235  -10.41353
       H    -6.86794   -7.70304   -9.03872
       O    -7.21753   -6.84431   -8.81179
      H1    -6.48503   -6.53998   -8.24874
       H    -5.60521  -10.68083  -18.04122
       O    -6.24259  -10.93182  -18.79346
      H1    -5.61920  -11.05832  -19.49379
       H    -4.17933  -12.86103  -14.20401
       O    -4.50818  -13.34348  -15.00230
      H1    -4.77339  -12.52671  -15.51245
       H    -6.23279  -13.83591  -14.21322
       O    -7.15756  -13.53097  -14.06512
      H1    -7.40550  -14.20717  -13.39777
       H    -2.19512  -13.95204   -7.79298
       O    -3.09145  -13.62485   -7.63221
      H1    -3.03604  -12.69045   -7.38513
       H    -2.63054  -11.13985  -13.97172
       O    -2.96992  -11.72663  -13.28474
      H1    -2.15726  -12.24052  -13.08663
       H    -2.15059  -12.44567  -16.17757
       O    -1.80751  -12.23054  -17.06379
      H1    -1.04924  -12.82020  -17.07607
       H    -9.02481  -11.78200  -12.37489
       O    -8.49092  -11.42704  -13.03933
      H1    -7.89404  -12.19406  -13.24514
       H    -6.81501   -9.88554  -13.43871
       O    -6.00716  -10.12274  -13.86527
      H1    -5.32379   -9.94602  -13.20382
       H    -3.69104  -10.30625   -7.83911
       O    -4.10860  -10.92383   -7.15842
      H1    -4.05190  -10.59770   -6.25986
       H     2.51434  -14.49562  -10.65747
       O     1.98463  -13.71735  -10.99812
      H1     1.38626  -13.65219  -10.28243
       H     1.04091  -12.42999  -15.56836
       O     1.63243  -12.58698  -16.34707
      H1     1.48097  -13.51404  -16.51102
       H    -0.21973  -14.65304  -16.81038
       O    -0.82506  -14.48961  -16.09015
      H1    -1.63196  -14.77067  -16.46676
       H    -0.83816  -16.50433  -12.08880
       O     0.01853  -16.81941  -11.85724
      H1     0.10589  -17.69744  -12.32602
       H    -3.30148  -17.77260   -9.19130
       O    -3.93106  -17.44170   -9.83183
      H1    -4.64758  -18.12075   -9.73015
       H    -7.69228   -5.14087  -11.87154
       O    -6.77070   -5.36743  -11.50776
      H1    -6.84432   -6.32557  -11.31964
       H    -2.88560   -8.33452  -17.29885
       O    -3.12330   -7.43703  -17.27297
      H1    -3.57117   -7.27463  -18.15012
       H    -6.49157  -17.68540  -15.20490
       O    -5.86910  -17.77699  -14.48223
      H1    -5.12787  -18.13164  -15.01319
       H    -9.30776  -11.69941  -18.07494
       O    -8.67895  -12.04007  -17.40539
      H1    -8.13027  -12.45407  -18.03331
       H    -1.24652   -5.41010   -9.95687
       O    -1.39303   -6.19144   -9.36241
      H1    -2.31235   -6.00488   -9.02973
       H    -0.44795   -7.06746  -12.27323
       O     0.19593   -6.40114  -12.45744
      H1     0.74589   -6.43807  -11.65610
       H    -0.50001  -11.04610   -6.54978
       O    -0.89995  -11.01229   -7.43842
      H1    -0.36759  -11.72944   -7.90034
       H     2.30050  -10.03393   -9.37703
       O     1.51678  -10.60555   -9.27067
      H1     1.11249  -10.58457  -10.15448
       H    -8.38927   -8.20135  -12.30926
       O    -7.68601   -8.84255  -11.95818
      H1    -8.25180   -9.55279  -11.74998
       H    -5.06545  -16.19238  -10.04155
       O    -5.91097  -15.68081   -9.99698
      H1    -5.79019  -14.97513   -9.34844
       H    -4.89284  -10.28567  -10.43104
       O    -4.30341  -11.00682  -10.65912
      H1    -3.98329  -10.71859  -11.52493
       H    -3.76233  -16.08442  -12.57440
       O    -2.87491  -16.41126  -12.89914
      H1    -2.86153  -17.35153  -12.56972
       H    -3.16463   -8.36803  -12.27001
       O    -3.97308   -8.76392  -12.64295
      H1    -4.13942   -8.11469  -13.35521
       H    -1.93792  -14.10750  -11.82239
       O    -1.30378  -13.37377  -11.71718
      H1    -0.88841  -13.73329  -10.90962
       H    -8.31501  -14.05807  -15.25489
       O    -8.96119  -14.64026  -15.67523
      H1    -9.49469  -13.90635  -16.02630
       H    -7.43832  -10.97071   -7.98398
       O    -7.92525  -11.41436   -8.72558
      H1    -7.33269  -11.85857   -9.35058
       H     2.90514   -7.49395  -13.94211
       O     2.01598   -7.86739  -13.98152
      H1     1.42848   -7.13573  -13.61421
       H    -6.79932  -12.95419  -11.40105
       O    -6.45735  -12.82799  -10.48491
      H1    -5.78196  -12.18588  -10.70011
       H    -5.87817  -15.92810  -11.86193
       O    -5.53166  -15.79716  -12.74439
      H1    -5.78660  -16.64011  -13.16376
       H    -8.81193  -15.67524  -12.07207
       O    -8.32185  -14.85943  -11.83518
      H1    -7.62042  -15.16029  -11.29296
       H     0.92048   -9.17294  -16.80970
       O     0.52546   -9.12329  -15.89521
      H1     1.10144   -8.44995  -15.37729
       H    -2.50069  -10.64948  -19.62185
       O    -2.95000  -11.48132  -19.79010
      H1    -2.77835  -11.99856  -18.97140
       H     1.21121  -15.36030  -14.75496
       O     1.68177  -16.13327  -15.03620
      H1     2.56625  -15.67163  -15.09434
       H    -4.07392  -14.74653  -16.22365
       O    -3.58305  -15.36557  -16.81737
      H1    -3.66950  -16.19195  -16.29104
       H    -8.17314  -10.58459  -16.82362
       O    -8.24746   -9.64737  -16.58891
      H1    -7.46134   -9.61532  -16.00741
       H     4.80171  -11.68866  -16.47396
       O     4.44456  -12.50656  -16.06044
      H1     3.41972  -12.42205  -16.01912
       H    -3.90532  -10.23374  -15.93472
       O    -4.72540  -10.57393  -16.18709
      H1    -5.30446  -10.47801  -15.39225
       H    -1.59159   -8.54592   -7.14636
       O    -1.16660   -8.30400   -6.31971
      H1    -1.51643   -7.43429   -6.23349
       H     1.33518  -15.40869  -18.78753
       O     0.67582  -15.02306  -18.18212
      H1     0.29002  -14.33580  -18.77383
       H     0.35727  -13.28493  -12.84032
       O     0.73705  -12.95242  -13.63034
      H1     1.67642  -12.91722  -13.34544
       H    -0.16270  -10.45551  -12.20318
       O    -0.78673  -10.52630  -11.51357
      H1    -0.96491  -11.45464  -11.58177
       H    -4.62693   -7.97126  -11.00348
       O    -5.05941   -8.13622  -10.14040
      H1    -4.41961   -7.82010   -9.54863
       H    -0.52363  -14.28560   -8.58713
       O    -0.26134  -13.45317   -8.97886
      H1     0.55101  -13.24824   -8.54976
       H    -1.94974  -10.32113  -17.83708
       O    -1.69097   -9.56815  -18.35633
      H1    -0.80885   -9.81038  -18.71667
       H    -2.32736  -18.25097  -15.75405
       O    -3.35024  -18.29058  -15.83448
      H1    -3.30892  -18.89110  -16.60396
       H    -4.79844  -13.51926   -7.92369
       O    -5.78200  -13.76573   -8.04672
      H1    -5.90224  -13.28214   -8.85658
       H    -6.16886  -16.47338  -18.01077
       O    -5.51947  -15.98224  -18.46517
      H1    -4.89019  -15.62748  -17.80968
       H     2.27166  -17.48798  -10.76831
       O     2.74297  -16.83480  -11.31645
      H1     2.01294  -16.43473  -11.83126
       H    -2.81213   -9.67175   -9.75076
       O    -2.53847   -9.21122   -8.94759
      H1    -1.98098   -9.89315   -8.54134
       H     4.10184   -8.90941  -12.45455
       O     3.43630   -9.57049  -12.37282
      H1     2.80576   -9.07098  -12.89749
       H    -1.27381   -9.69785  -15.53979
       O    -2.11733   -9.66226  -15.01281
      H1    -2.07759   -8.88423  -14.45552
       H    -6.13525   -7.21725  -15.56086
       O    -6.88961   -7.23668  -16.16621
      H1    -6.45879   -7.38082  -16.95229
       H     3.80627  -12.82777  -10.85369
       O     4.29824  -12.10997  -11.27634
      H1     3.64804  -11.49825  -11.65777
       H    -4.60478   -5.76298  -13.98489
       O    -5.10145   -6.54643  -13.76843
      H1    -5.71468   -6.38554  -13.05329

