180
frame 2 | Written by MDAnalysis XYZWriter (release 2.4.3)
       H     3.41789  -10.85136   16.92293
       O     3.65820   -9.96820   17.18678
      H1     3.38912   -9.98880   18.09333
       H    -5.15515  -10.45695   18.95904
       O    -5.97625  -10.46582   18.53534
      H1    -5.95462  -11.36092   18.23725
       H    -1.00867  -12.68310   17.80155
       O    -0.10127  -12.31374   17.89349
      H1    -0.26220  -11.63793   17.19550
       H    -9.47342  -19.41078   14.42893
       O   -10.03064  -19.28619   15.21776
      H1    -9.59260  -19.85402   15.84909
       H    -0.92929   -8.66485   16.09473
       O    -1.15217   -7.72312   16.36324
      H1    -0.85212   -7.21003   15.57032
       H     2.80430  -16.83846   15.66713
       O     2.40863  -17.71968   15.65005
      H1     2.44725  -17.91799   14.73742
       H    -1.07059  -16.26805    8.38436
       O    -1.11858  -16.39297    7.43793
      H1    -0.40925  -15.83528    7.13758
       H    -8.23484  -11.30543   13.79032
       O    -8.08698  -10.35380   13.95227
      H1    -7.58502  -10.10491   13.14948
       H    -5.03408  -15.59941    9.42413
       O    -5.99481  -15.81689    9.44357
      H1    -6.26280  -15.57808    8.52774
       H     0.94454  -18.96724   10.69360
       O     0.42542  -18.25494   11.12477
      H1    -0.33341  -18.80224   11.35026
       H    -6.87425  -13.41598   10.71515
       O    -7.15857  -14.17120   11.22000
      H1    -6.74147  -14.90508   10.67178
       H   -11.90524  -16.86380   17.63397
       O   -11.93644  -17.03718   18.58131
      H1   -12.73880  -16.58781   18.89882
       H     2.64477  -17.18898   12.60374
       O     2.64315  -18.03557   13.04684
      H1     1.79081  -18.35476   12.74759
       H    -6.50854  -14.16327   13.07555
       O    -5.79561  -14.58646   13.64271
      H1    -6.31636  -15.33360   13.89516
       H    -6.66808   -8.29889   11.77544
       O    -6.41046   -9.21032   12.01580
      H1    -5.48587   -9.17724   12.29660
       H    -3.15165   -8.67208   16.25193
       O    -3.64872   -9.49906   16.20502
      H1    -4.52397   -9.05972   16.09588
       H    -4.92702  -13.27170   16.44861
       O    -4.42995  -13.22807   15.63427
      H1    -4.96147  -13.66888   14.97820
       H    -3.41118  -17.48361   10.70797
       O    -3.35561  -17.07718    9.80532
      H1    -2.92555  -17.79521    9.27907
       H    -6.25256   -9.60090   16.82549
       O    -6.34326   -9.09423   16.05245
      H1    -6.59960   -9.65989   15.28224
       H    -2.94418  -10.67320   12.42321
       O    -2.92626  -11.12749   11.57838
      H1    -3.09232  -10.40478   10.96414
       H    -5.86526  -13.81375   18.04727
       O    -5.23284  -13.10858   18.29781
      H1    -4.43788  -13.62767   18.58650
       H    -3.25615  -13.00623    9.22178
       O    -3.88623  -12.81890    8.52860
      H1    -3.91626  -13.70131    8.08596
       H     0.78872  -16.78901   16.38618
       O     0.20960  -16.09733   16.73844
      H1    -0.63724  -16.48241   16.49833
       H    -1.31111  -13.99615   10.80167
       O    -1.52689  -13.21671   10.26995
      H1    -1.96741  -12.60629   10.90025
       H     2.96336  -13.15576   18.04429
       O     2.55080  -13.01964   17.18300
      H1     1.59161  -12.94562   17.40565
       H    -1.89730  -16.32178   10.59016
       O    -1.08731  -15.85050   10.89101
      H1    -0.50116  -16.64727   10.91344
       H    -2.06686  -14.59062   19.09905
       O    -2.31416  -13.94218   18.38604
      H1    -2.40033  -14.54664   17.63617
       H     5.15047  -18.06571   17.61913
       O     5.64395  -17.56697   17.02147
      H1     5.09889  -16.78052   16.89891
       H     2.23532  -11.95571   13.43554
       O     2.56783  -12.10429   14.32581
      H1     2.19754  -12.94804   14.55298
       H    -3.83947  -16.30190   16.88858
       O    -3.20681  -15.70869   16.48437
      H1    -3.64641  -14.90797   16.10400
       H    -8.41096  -16.58770   14.75253
       O    -8.79255  -16.07072   15.46809
      H1    -8.73977  -15.12769   15.12724
       H   -11.63898  -14.44407   13.74900
       O   -11.27464  -13.67682   14.20821
      H1   -12.15205  -13.28863   14.43864
       H     1.04526   -9.49380   19.42421
       O     0.51003   -9.03923   18.75631
      H1     1.00876   -8.29500   18.48304
       H     1.64774  -16.63346   19.68058
       O     1.39206  -15.78676   19.35817
      H1     1.01127  -15.97285   18.50527
       H     1.05903  -15.11406   15.57089
       O     1.57348  -14.71112   14.82423
      H1     0.81840  -14.70667   14.18923
       H    -8.15900  -18.30226    8.25098
       O    -7.80256  -19.19668    8.40341
      H1    -7.13355  -19.13184    9.06914
       H   -11.29330  -16.40276   13.94097
       O   -11.61626  -16.28766   13.02385
      H1   -10.91633  -15.87562   12.61103
       H     0.69961  -12.69338   11.49387
       O     0.66117  -11.76052   11.76890
      H1    -0.22822  -11.69400   12.10054
       H   -10.93598  -14.32870   16.58075
       O   -11.04701  -13.75432   17.32794
      H1   -10.91644  -12.79778   16.97610
       H    -3.03965   -9.80121   19.63150
       O    -3.38863  -10.69072   19.57562
      H1    -3.18026  -10.92803   18.66487
       H    -1.03233  -19.38781   17.50287
       O    -1.57236  -18.84408   16.89182
      H1    -2.01309  -18.30738   17.50029
       H    -3.82683  -15.27169   13.55634
       O    -3.01978  -15.70625   13.81195
      H1    -3.02083  -15.68396   14.78615
       H    -8.99849  -14.62682   19.68001
       O    -8.93399  -13.82959   19.19079
      H1    -9.74946  -13.73652   18.69691
       H    -4.23847  -18.41413   16.28683
       O    -4.98648  -18.30455   16.92710
      H1    -4.65405  -18.56988   17.80458
       H    -2.61750  -12.24701   15.04526
       O    -1.90625  -12.05282   14.36152
      H1    -1.57316  -12.94983   14.12022
       H   -10.38712  -16.74778   15.81053
       O   -11.36479  -16.82350   15.69484
      H1   -11.53463  -17.80257   15.54039
       H    -9.65978  -13.26982   13.95878
       O    -8.68597  -13.17710   13.81901
      H1    -8.49608  -13.72416   13.02747
       H    -3.04489   -8.70742   12.98379
       O    -3.75326   -9.22021   13.38183
      H1    -3.45876   -9.21625   14.34596
       H    -0.73757  -10.85501   15.30131
       O    -0.25981  -10.28902   15.91672
      H1     0.57346  -10.11872   15.53951
       H   -10.22141  -13.66740   10.71838
       O    -9.94151  -14.41565   11.28857
      H1    -8.96859  -14.46269   11.11356
       H     4.50336  -14.81084   16.02257
       O     3.88881  -15.41152   16.57125
      H1     3.12825  -14.83358   16.83269
       H    -7.07235  -17.88424   13.69285
       O    -6.67700  -17.04098   14.05362
      H1    -6.41338  -17.28800   14.94445
       H    -2.68509  -18.09563   14.70417
       O    -3.43948  -18.68804   14.55730
      H1    -3.65651  -18.43860   13.64012
       H    -5.66881  -19.12425   10.18220
       O    -6.20173  -18.36519   10.29910
      H1    -5.61893  -17.60402    9.98372
       H    -9.41048  -10.82507   18.49279
       O   -10.25502  -11.02130   18.07469
      H1   -10.92805  -11.17781   18.78777
       H     2.45565  -14.71340   13.29686
       O     2.91770  -15.13596   12.53978
      H1     3.04405  -14.37034   11.96484
       H    -4.78876  -16.81549   12.75240
       O    -4.41447  -17.53528   12.18868
      H1    -5.18310  -17.96282   11.79267
       H    -7.40154  -15.33368   17.24189
       O    -6.52241  -15.32947   17.46300
      H1    -6.57645  -15.70037   18.40276
       H    -1.61703  -14.81875   13.30493
       O    -0.71620  -14.47352   13.30271
      H1    -0.33615  -14.84464   12.48340
       H    -4.96400  -11.37416   11.17965
       O    -5.85195  -11.50613   10.74483
      H1    -6.32394  -10.69543   10.99184

