180
frame 2 | Written by MDAnalysis XYZWriter (release 2.4.3)
       H     3.50619  -17.82043  -13.76975
       O     3.45117  -18.47937  -14.48559
      H1     3.98160  -19.25838  -14.38451
       H     6.20978   -8.21611  -13.16509
       O     5.97101   -9.04377  -12.65540
      H1     6.83872   -9.42358  -12.58396
       H     4.44284  -17.81885   -9.99811
       O     5.37503  -18.13362  -10.06762
      H1     5.18559  -19.06879   -9.85938
       H     6.95665   -6.08392  -14.42445
       O     7.09238   -6.66754  -13.64538
      H1     7.82234   -6.25762  -13.15949
       H    11.07290   -7.64209  -16.68718
       O    10.96069   -8.05815  -17.55861
      H1    10.50350   -7.38712  -18.11959
       H     0.60309  -18.89787  -15.91714
       O     0.89187  -18.71168  -14.97529
      H1     1.88771  -18.62814  -14.94331
       H     9.06793  -15.27113  -17.14049
       O     9.84530  -15.19615  -16.58129
      H1    10.29767  -14.45426  -16.97732
       H     0.68796  -10.84569  -11.63590
       O     0.87721  -10.39506  -12.49987
      H1     0.69729  -10.99691  -13.19197
       H    11.80236  -17.22249  -15.22376
       O    12.00344  -16.34381  -15.49440
      H1    11.22507  -15.98156  -15.83416
       H     4.94748  -16.21811  -15.52769
       O     5.21959  -15.68894  -14.74235
      H1     5.77921  -16.22447  -14.15130
       H     7.73549  -13.73320  -12.41753
       O     6.78148  -13.78330  -12.59554
      H1     6.64348  -14.72587  -12.47999
       H     3.15091  -16.73342  -16.91405
       O     4.05228  -17.12763  -16.74475
      H1     3.87502  -17.64526  -15.96696
       H     8.24497  -19.06732  -15.38004
       O     8.79124  -19.34256  -14.61327
      H1     9.28475  -18.55806  -14.41108
       H    -1.98226  -11.48948  -18.43003
       O    -1.10001  -11.70082  -18.12265
      H1    -0.57805  -11.80815  -18.89333
       H     6.07851  -12.36165  -15.52642
       O     6.59878  -13.04941  -16.03195
      H1     6.37690  -13.87217  -15.53469
       H     1.45674   -8.65193  -12.31252
       O     1.76162   -7.83109  -11.85603
      H1     2.66663   -7.96956  -11.54762
       H     8.13157  -17.71474   -9.91246
       O     8.29432  -16.77058  -10.07172
      H1     7.71798  -16.57452  -10.83754
       H    11.23845  -12.63945  -17.36362
       O    10.67269  -13.06294  -18.03320
      H1     9.80403  -12.69631  -18.12461
       H    13.87008  -16.39079  -14.58975
       O    14.83330  -16.32187  -14.64788
      H1    15.12967  -16.70429  -13.74813
       H     9.97010  -10.23889  -13.88741
       O    10.10220  -10.24633  -14.89206
      H1     9.23469  -10.38810  -15.28548
       H     6.20936  -12.91044  -10.59371
       O     6.60265  -13.01715   -9.68800
      H1     6.15898  -12.28258   -9.15316
       H     1.91449  -12.42335  -17.05237
       O     2.48626  -11.81324  -17.51517
      H1     2.76127  -11.20068  -16.82862
       H     0.03990  -15.31057  -13.61332
       O     0.42994  -15.56765  -14.48487
      H1     0.33663  -16.51705  -14.57523
       H     1.52710  -14.67988  -17.29592
       O     2.00501  -15.24897  -17.93341
      H1     2.92116  -14.93942  -18.07802
       H     2.49022  -18.87615  -11.37547
       O     2.42310  -17.92024  -11.14432
      H1     2.68212  -17.42964  -11.91058
       H     6.57829  -14.53872   -8.82686
       O     6.99311  -15.28464   -8.34085
      H1     7.45683  -15.82443   -9.03841
       H     2.73411  -12.06212   -8.07141
       O     2.75186  -11.77373   -8.96789
      H1     1.79290  -11.52961   -8.99736
       H    12.91917  -13.88283  -19.83478
       O    13.10668  -14.82781  -19.86706
      H1    13.37896  -15.01830  -18.94696
       H     0.23070  -14.39492  -15.70022
       O     0.65000  -13.67388  -16.25028
      H1    -0.12275  -13.23084  -16.63352
       H     7.07211  -17.59651  -17.29426
       O     7.22942  -18.40592  -16.77045
      H1     7.34958  -19.05866  -17.46052
       H    11.39782  -15.93499   -9.25206
       O    10.60794  -15.55460   -8.84066
      H1     9.82080  -15.83494   -9.29374
       H     0.01061  -13.35355  -11.98963
       O    -0.00688  -13.18042  -12.93023
      H1    -0.92192  -12.72932  -13.12846
       H    -0.00026  -10.09571  -18.54319
       O     0.81976   -9.60788  -18.72830
      H1     1.46422  -10.16066  -18.25851
       H     3.36106  -15.65751  -13.79336
       O     2.71119  -16.09602  -13.23415
      H1     1.88206  -15.86368  -13.70079
       H     5.25591   -8.94835  -17.25647
       O     5.90045   -8.64865  -17.96264
      H1     5.80698   -7.66003  -17.90994
       H     3.99435  -13.29701  -18.95672
       O     4.46096  -14.06269  -18.47686
      H1     4.68522  -13.63432  -17.65668
       H     3.46171  -14.49538  -12.22826
       O     4.18325  -13.97006  -11.82139
      H1     5.00288  -14.05919  -12.34667
       H     5.39123  -10.16634  -13.88737
       O     5.09933  -10.65463  -14.68023
      H1     4.34847  -11.19581  -14.53792
       H    -0.54338  -16.66802  -17.44332
       O    -1.43826  -16.30941  -17.51459
      H1    -2.04709  -16.73829  -16.90753
       H     7.62261   -8.93983  -17.46235
       O     8.36989   -9.56167  -17.30162
      H1     9.13336   -9.03644  -17.11190
       H     6.06873  -10.69639   -7.20565
       O     6.62980  -10.98787   -7.94515
      H1     6.69687  -10.24234   -8.52586
       H    13.53965  -12.10226  -14.96278
       O    14.33608  -12.00624  -14.48785
      H1    15.07379  -12.49107  -14.87624
       H    10.11401  -15.74602  -13.12503
       O     9.35595  -15.89416  -13.65215
      H1     9.61250  -15.66219  -14.60661
       H     5.47232  -19.67817  -18.36628
       O     4.60880  -19.30483  -18.49804
      H1     4.49875  -18.59365  -17.83204
       H     2.80288   -8.65758  -15.96148
       O     3.39450   -9.41732  -16.30732
      H1     3.98575   -9.69665  -15.59816
       H    11.91459   -7.66234  -14.56009
       O    11.02380   -7.51720  -14.94181
      H1    10.64647   -8.32490  -14.58120
       H     8.50439  -11.32182  -18.21394
       O     8.12279  -12.19426  -18.46572
      H1     7.60616  -12.53815  -17.72154
       H     0.73253  -18.14925  -18.58442
       O     1.08646  -17.91960  -17.68816
      H1     1.49190  -17.01914  -17.79277
       H     1.86354  -13.49917  -10.37705
       O     1.00123  -13.93490  -10.42814
      H1     0.70006  -14.29720   -9.56330
       H    11.96348  -15.23660  -11.61007
       O    11.70443  -14.93191  -12.48852
      H1    12.21273  -14.13614  -12.69037
       H     4.12080  -14.93559   -9.50875
       O     4.22531  -15.48675   -8.68684
      H1     5.17249  -15.45546   -8.50002
       H    10.22720  -13.69188  -12.07818
       O     9.38958  -13.31759  -11.72602
      H1     9.64375  -12.67575  -11.02192
       H     8.05327  -19.07094  -12.93003
       O     7.88728  -18.94257  -11.96309
      H1     7.32119  -19.68048  -11.74329
       H    11.32860  -11.03401  -15.79144
       O    12.16416  -11.46358  -16.22379
      H1    12.52310  -10.74624  -16.71156
       H     9.07289   -9.98371  -11.64206
       O     8.70642  -10.54798  -12.40356
      H1     8.59215  -11.44896  -12.07507
       H     4.58536   -6.84462  -10.88362
       O     4.36773   -7.79319  -10.78006
      H1     4.92742   -8.30582  -11.45180
       H     8.38253  -16.65116  -18.94572
       O     7.67392  -16.13543  -18.55113
      H1     7.18608  -15.77527  -19.32229
       H    -1.36337  -10.82692  -14.79963
       O    -0.49644  -10.62120  -15.19114
      H1    -0.56511  -10.93301  -16.08983
       H     2.95601  -12.94642  -13.46057
       O     3.10609  -12.63319  -14.32583
      H1     2.20595  -12.75189  -14.66624
       H     7.52824  -16.62357  -13.09643
       O     6.74589  -16.58693  -12.56617
      H1     6.81261  -17.41798  -12.07307

