180
frame 5 | Written by MDAnalysis XYZWriter (release 2.4.3)
       H    -5.53665   -6.88652  -11.12623
       O    -6.34250   -6.30561  -11.09930
      H1    -6.20065   -6.11716  -10.20192
       H     1.77223    3.53338   -9.02787
       O     1.56890    4.52291   -8.97897
      H1     1.35673    4.76614   -9.84966
       H    -1.14978    0.45008  -14.29443
       O    -1.98815    0.20227  -13.86691
      H1    -2.71208    0.73225  -14.26921
       H    -2.27989   -2.87332  -13.82987
       O    -2.76757   -2.44789  -14.54066
      H1    -2.38187   -1.56672  -14.45318
       H    -7.00497    0.66315   -8.08659
       O    -7.05149   -0.30095   -8.08116
      H1    -7.99931   -0.41810   -7.84235
       H    -5.88575   -2.80683  -10.15596
       O    -6.64412   -2.73795   -9.55872
      H1    -6.58716   -1.80985   -9.31617
       H    -4.01530   -7.43139   -2.76705
       O    -3.12023   -7.46200   -3.19546
      H1    -2.80733   -6.54458   -3.10907
       H     2.77997    1.30723   -9.16430
       O     2.24335    1.99240   -9.61541
      H1     1.75758    1.40906  -10.18121
       H    -1.38997    3.36231   -4.53218
       O    -0.40142    3.39850   -4.44274
      H1    -0.30682    4.29584   -4.10126
       H    -0.14150   -2.75706   -6.88371
       O     0.42481   -2.71038   -6.11067
      H1     0.50521   -3.63552   -5.80768
       H    -2.79431    0.51962   -4.38414
       O    -2.94301    0.09485   -3.51941
      H1    -2.15583    0.34630   -3.02220
       H     0.01054   -6.28012   -1.06949
       O     0.64811   -5.52007   -1.28573
      H1     0.03330   -4.78548   -1.48656
       H    -5.83049   -5.35656   -2.95074
       O    -5.47687   -5.11077   -2.06237
      H1    -4.56696   -4.86779   -2.25115
       H    -3.88421   -0.87785   -2.05873
       O    -3.84035   -1.28013   -1.15708
      H1    -4.08642   -0.49543   -0.65101
       H     3.68358   -2.78346  -10.93377
       O     3.59086   -3.36484  -10.15222
      H1     3.50952   -2.64814   -9.47128
       H     1.91648   -4.92184   -2.54135
       O     2.54072   -4.33526   -3.04285
      H1     3.13221   -4.06286   -2.28103
       H     1.13262   -2.98426  -12.37372
       O     0.65849   -2.78074  -11.56510
      H1     1.03607   -3.46012  -11.03297
       H    -2.64797    4.31053  -10.48998
       O    -2.94301    3.41593  -10.75317
      H1    -3.35162    3.07033   -9.95657
       H     5.25138   -3.93514   -6.15261
       O     6.04024   -3.41276   -5.97185
      H1     6.77072   -3.82731   -6.48720
       H    -1.26735    1.41325  -12.71574
       O    -0.84462    2.03377  -12.15139
      H1    -1.55862    2.50862  -11.73878
       H     3.42881   -8.47139   -7.48030
       O     3.24106   -8.01792   -8.32399
      H1     3.44817   -8.79645   -8.85816
       H     2.75805   -4.30340   -5.25160
       O     3.20363   -4.59226   -6.10634
      H1     2.50351   -5.17621   -6.47658
       H    -2.07533   -5.02899  -11.03867
       O    -2.25917   -5.45588  -10.19325
      H1    -2.72398   -4.73483   -9.76848
       H     1.89026   -0.93449  -10.25482
       O     1.01574   -0.57782  -10.28933
      H1     0.68892   -1.24992  -10.95762
       H     1.90128   -2.23838   -7.32236
       O     2.88817   -2.32481   -7.39237
      H1     3.03319   -3.19599   -6.93117
       H     2.79702   -4.70832  -10.73553
       O     2.11567   -5.39793  -11.04467
      H1     1.69683   -5.58574  -10.20753
       H    -0.92639   -7.66573  -13.10888
       O    -0.50400   -6.81156  -12.99161
      H1     0.07136   -7.09783  -12.22201
       H     3.80375   -0.47809  -12.67478
       O     3.75520   -1.42693  -12.41297
      H1     3.96130   -1.76939  -13.33415
       H     0.01074   -8.19680   -3.23780
       O    -0.35245   -7.79764   -4.05469
      H1    -1.32773   -7.69703   -3.88340
       H    -3.22202   -1.54936   -4.57742
       O    -3.29904   -2.45380   -4.91043
      H1    -3.91929   -2.36186   -5.61011
       H    -0.73388   -3.81966  -12.01389
       O    -1.44740   -4.32928  -12.47574
      H1    -1.12349   -5.23989  -12.74911
       H     0.67043   -9.09140   -7.10405
       O     1.08045   -9.03275   -6.21799
      H1     0.35183   -8.68290   -5.68143
       H    -1.89634   -3.05104   -7.56934
       O    -1.23407   -2.66149   -8.14988
      H1    -1.41030   -1.71048   -8.05409
       H    -4.20450   -8.27198   -8.14261
       O    -4.57430   -9.14776   -8.27446
      H1    -5.39592   -9.05373   -8.73981
       H     1.57523   -8.31871   -8.83104
       O     0.58590   -8.30830   -8.99092
      H1     0.56459   -8.78912   -9.83624
       H    -3.37276    0.80911   -6.90273
       O    -3.22193    1.30249   -6.08650
      H1    -4.15780    1.27192   -5.77851
       H    -1.22667    1.20791   -8.02682
       O    -0.96735    0.34837   -8.39254
      H1    -0.40003    0.55709   -9.21018
       H    -4.55066   -0.62773  -11.60541
       O    -4.36230    0.21305  -11.09867
      H1    -4.86800    0.93106  -11.43352
       H    -6.42396   -5.13475   -8.09879
       O    -5.88911   -5.82744   -8.53208
      H1    -5.15263   -5.88191   -7.89342
       H    -2.43877   -3.99327   -5.57401
       O    -2.43445   -4.71327   -6.23404
      H1    -1.56849   -5.08595   -6.10595
       H    -3.31008   -6.11330   -6.44992
       O    -3.83794   -6.94500   -6.50125
      H1    -3.63479   -7.26184   -5.58398
       H    -0.19172    3.69327   -8.18095
       O    -1.01140    3.37525   -7.77352
      H1    -0.72812    3.34783   -6.83874
       H    -2.26148   -4.00676   -2.19147
       O    -2.92044   -4.33562   -2.85210
      H1    -3.12952   -3.58551   -3.42499
       H     0.36042   -5.84370   -6.91411
       O     0.27817   -5.69445   -5.94734
      H1     0.47142   -6.54175   -5.56369
       H    -0.56178   -5.37554   -9.20780
       O     0.31476   -5.68212   -8.81670
      H1     0.17230   -6.66759   -8.84294
       H     2.18700   -0.71503   -4.40086
       O     2.13131    0.13057   -4.87714
      H1     2.30183   -0.20145   -5.76641
       H     1.61099   -2.59485   -3.25768
       O     0.76876   -2.16435   -3.40635
      H1     0.62562   -2.28494   -4.36559
       H     4.19528   -6.37607   -8.59472
       O     4.76781   -5.57872   -8.54422
      H1     4.15335   -5.02930   -9.04136
       H    -2.49379    4.17719   -7.53327
       O    -3.40967    4.44982   -7.28098
      H1    -3.23504    5.43831   -7.39049
       H     0.43222    0.36325   -3.67608
       O    -0.04646    0.93725   -3.11436
      H1    -0.00868    1.75875   -3.62390
       H    -4.01359   -7.30493  -12.43386
       O    -3.99485   -7.50139  -11.45971
      H1    -3.38285   -6.85565  -11.09554
       H     4.32855   -0.67494   -9.67756
       O     3.64592   -0.25840   -9.08005
      H1     3.61036   -0.92162   -8.35108
       H    -8.46953   -2.83668   -5.77017
       O    -7.92655   -3.53657   -6.07111
      H1    -8.31375   -3.84784   -6.84749
       H    -2.74773    0.25010   -8.65529
       O    -3.68378    0.07864   -8.41334
      H1    -4.12324    0.21027   -9.30935
       H    -4.15355   -2.25248  -13.27060
       O    -4.89269   -1.98223  -12.72417
      H1    -5.45598   -2.76148  -12.69308
       H    -3.87042   -1.87709   -8.79039
       O    -3.62672   -2.70406   -9.20049
      H1    -2.69403   -2.75603   -9.00520
       H    -6.46301    0.14864   -6.03813
       O    -6.07568    0.77803   -5.37689
      H1    -5.95563    0.23860   -4.56769
       H    -4.97480   -2.93476   -7.65394
       O    -5.16449   -2.85288   -6.70629
      H1    -6.15884   -2.90469   -6.70059
       H    -0.24148   -2.97236   -2.11229
       O    -0.88877   -3.30670   -1.46704
      H1    -0.95920   -2.56672   -0.81661
       H     1.61859   -4.55270  -14.11950
       O     1.80777   -3.57883  -13.92888
      H1     1.37836   -3.12341  -14.63058

