180
frame 3 | Written by MDAnalysis XYZWriter (release 2.4.3)
       H    -9.17298   11.68257  -10.36178
       O    -8.31995   11.28151  -10.20202
      H1    -7.90038   11.53786  -11.03305
       H    -3.81461   17.39304  -12.18037
       O    -4.38435   17.74171  -12.84627
      H1    -4.28745   16.98107  -13.47661
       H    -4.73276   10.24321   -5.34641
       O    -4.71989    9.26184   -5.42173
      H1    -5.32623    9.10583   -6.15049
       H   -11.71408    9.13911  -10.54319
       O   -11.04693    8.44079  -10.46579
      H1   -10.49031    8.71482   -9.72656
       H    -5.62785   17.81477   -8.15737
       O    -4.71424   18.05342   -8.01701
      H1    -4.81063   18.77872   -7.44908
       H   -10.25546    7.37487  -12.56000
       O    -9.93279    6.42703  -12.49082
      H1   -10.22507    6.14382  -13.35278
       H    -3.32219   12.39539   -7.97559
       O    -2.74027   11.82465   -8.39500
      H1    -1.90670   12.18758   -8.01377
       H    -3.20362    8.68066  -11.90001
       O    -2.50860    9.32917  -11.90096
      H1    -2.61025    9.81751  -11.02551
       H    -8.66855   13.41190  -14.64936
       O    -9.33712   12.96705  -15.23744
      H1    -9.97471   12.60712  -14.60605
       H    -6.67543   12.59515   -7.27880
       O    -6.99489   13.47969   -7.35551
      H1    -6.82247   13.73788   -6.42498
       H    -6.12683    6.24494  -15.57895
       O    -6.13699    6.78915  -14.81903
      H1    -6.45812    6.13653  -14.17321
       H    -2.86921    7.69102  -15.07066
       O    -3.76589    8.16695  -14.86701
      H1    -4.35636    7.44429  -14.74301
       H   -12.50992   10.80113  -12.21953
       O   -12.85095   10.49304  -11.36979
      H1   -13.11581   11.34122  -11.00778
       H    -3.59758   14.86899  -12.08442
       O    -4.37804   14.33738  -12.20317
      H1    -4.37039   14.34555  -13.18152
       H    -7.19497    9.15400  -11.31116
       O    -6.41582    8.74307  -10.96982
      H1    -6.75366    8.21721  -10.18308
       H    -9.03666    8.48129   -7.13670
       O    -8.44530    8.42788   -6.37752
      H1    -8.80628    7.64460   -5.88658
       H    -7.37072    7.68338   -7.81736
       O    -6.97405    7.51853   -8.70425
      H1    -6.49315    6.65498   -8.51064
       H    -6.02749   11.82491   -9.34599
       O    -5.61646   12.32856  -10.04025
      H1    -6.15238   12.08881  -10.80494
       H    -5.24360    9.97853  -17.81068
       O    -5.46387   10.97721  -17.71917
      H1    -6.36418   11.02524  -17.32182
       H    -8.82502    8.26445  -15.57502
       O    -7.98212    8.50834  -15.97947
      H1    -7.38861    7.96897  -15.41284
       H    -7.38725   19.01564   -8.30535
       O    -7.44015   18.18805   -7.82923
      H1    -8.00705   17.68317   -8.45205
       H    -8.23787   10.12897  -16.53090
       O    -8.18815   10.99360  -16.95455
      H1    -8.62122   11.56948  -16.30729
       H     0.25588   10.37178  -12.12182
       O     0.74179   10.85586  -11.43487
      H1     0.93941   10.14373  -10.82330
       H    -7.62801    4.41062  -12.44226
       O    -7.29927    5.26103  -12.15418
      H1    -8.17248    5.76075  -12.16724
       H     0.02655   12.58086   -8.21471
       O    -0.45430   12.63759   -7.35044
      H1    -0.54481   13.66337   -7.43563
       H   -10.66206   16.88530   -6.98254
       O    -9.67595   16.69211   -6.92949
      H1    -9.33781   17.41500   -6.35800
       H    -3.77522   16.60822   -8.18209
       O    -3.44905   15.64620   -8.29531
      H1    -4.24123   15.26166   -8.72655
       H    -9.72257   13.65428  -10.14543
       O   -10.39704   12.96889   -9.88848
      H1   -10.35423   13.04282   -8.90313
       H   -10.00636   14.79212  -12.32417
       O    -9.15755   14.52764  -11.93134
      H1    -9.05945   15.27153  -11.32072
       H    -3.09271   14.40324   -6.81064
       O    -2.97996   14.36437   -5.83920
      H1    -3.59048   15.06582   -5.59123
       H    -7.90375   14.44908  -13.34854
       O    -7.39858   14.32026  -14.15498
      H1    -7.16521   15.22394  -14.30960
       H    -4.63400    6.33336  -12.39422
       O    -4.30595    7.04871  -11.77528
      H1    -5.17419    7.54444  -11.59840
       H    -5.36323   14.99404  -10.62621
       O    -5.68215   15.04689   -9.69416
      H1    -5.81430   14.05535   -9.43180
       H    -8.24573   14.12163   -5.15301
       O    -7.38514   14.58379   -5.00237
      H1    -7.08115   14.12561   -4.19565
       H    -7.48711   15.34742   -9.82507
       O    -8.02735   16.13757   -9.97729
      H1    -7.48896   16.68166  -10.57343
       H    -4.22492   12.61695  -14.82242
       O    -4.25419   13.62131  -14.85587
      H1    -4.82800   13.62871  -15.62024
       H   -11.19091   15.52823  -13.75273
       O   -11.52850   14.95927  -13.02579
      H1   -12.20760   15.55145  -12.60626
       H   -12.23581   11.94833  -14.19184
       O   -11.49863   12.10023  -13.59272
      H1   -11.57787   13.00707  -13.27285
       H    -1.76337   17.17771  -10.98831
       O    -2.58828   16.72708  -11.16959
      H1    -2.94470   16.63102  -10.24416
       H    -0.83023   10.35068  -14.43087
       O    -0.53675    9.66938  -13.75155
      H1    -1.23477    9.70518  -13.06605
       H    -8.60648   13.71493   -7.61146
       O    -9.50937   14.02857   -7.39403
      H1    -9.42100   14.99850   -7.30697
       H     0.05869   12.43340  -10.70213
       O    -0.14889   13.27559  -10.15348
      H1    -1.05808   13.45138  -10.41340
       H    -3.42061    9.73652   -8.64508
       O    -4.03806    9.03200   -8.59579
      H1    -4.41831    8.96800   -9.51556
       H    -7.99582   15.04391  -15.77158
       O    -8.06452   15.32256  -16.66893
      H1    -7.24954   15.01286  -17.09820
       H    -6.02579    4.93378  -10.98073
       O    -5.18186    4.77015  -10.48561
      H1    -4.58895    5.38298  -10.97161
       H    -8.89928    9.48450   -4.92028
       O    -9.49668    9.97820   -4.36025
      H1    -9.55024    9.40206   -3.56103
       H    -6.59606   12.74304  -13.32211
       O    -6.38263   11.89560  -12.85668
      H1    -5.45514   11.65076  -13.05737
       H    -3.37338   11.02198  -12.75686
       O    -3.71646   11.13606  -13.66855
      H1    -3.80941   10.20793  -13.90376
       H   -10.43128   10.23735   -8.62032
       O    -9.61744    9.66146   -8.54728
      H1    -9.05696   10.22118   -9.11648
       H   -13.49661   13.06174   -9.41334
       O   -13.02785   12.92314  -10.27661
      H1   -12.06630   13.07036  -10.06475
       H    -5.46757   11.86293   -3.93561
       O    -5.21293   11.89137   -4.86272
      H1    -4.42327   12.44464   -4.80738
       H    -3.90989   12.50768  -11.05384
       O    -3.00619   12.06744  -11.00367
      H1    -2.96011   11.96646  -10.03126
       H    -1.56327    7.47184   -7.40402
       O    -2.30671    6.93209   -7.72092
      H1    -2.87529    7.64939   -8.09652
       H    -2.09434    6.70407  -10.86660
       O    -1.76479    5.97239  -10.28346
      H1    -1.84442    6.35311   -9.35463
       H   -12.31989   13.64054   -6.61989
       O   -12.07566   13.59684   -7.59867
      H1   -11.12795   13.79802   -7.54991
       H    -7.20278   17.20940  -13.13179
       O    -7.65861   17.19168  -13.96946
      H1    -8.58618   17.25756  -13.67899
       H    -3.66860   15.22981  -15.13884
       O    -3.38667   16.17922  -14.98620
      H1    -3.90340   16.67860  -15.66988
       H   -12.32156   11.56963   -8.03771
       O   -12.08277   10.71109   -8.42066
      H1   -12.35146   10.85057   -9.31761
       H    -5.60265   10.25959   -8.05085
       O    -6.36803   10.83518   -7.90736
      H1    -6.98573   10.24989   -7.50263
       H    -6.79638   18.83731  -11.34658
       O    -6.52781   17.92130  -11.25501
      H1    -5.56280   18.02797  -11.38705

