180
frame 1 | Written by MDAnalysis XYZWriter (release 2.4.3)
       H    12.27044  -16.54966   16.14178
       O    11.92559  -16.16194   17.03692
      H1    11.16524  -15.71589   16.60482
       H    10.10322  -14.41347   15.52734
       O     9.56161  -15.02012   16.12482
      H1     9.14327  -14.33563   16.73490
       H     6.71083  -19.11894    7.52186
       O     5.98256  -18.57559    7.10766
      H1     6.31818  -18.38459    6.25448
       H     3.19313  -16.90858   15.95302
       O     2.96191  -17.83452   15.89343
      H1     2.58374  -17.86733   14.99830
       H    10.40272  -17.29823    7.45346
       O     9.52485  -17.27249    7.80714
      H1     9.01531  -16.81203    7.02475
       H     8.67473  -17.95069   13.84463
       O     8.79397  -17.93724   14.77355
      H1     7.99445  -18.39544   15.06392
       H    11.76590  -12.86637   18.65815
       O    10.96143  -12.47980   18.97996
      H1    11.23354  -11.72412   19.51294
       H    18.66904  -14.20278   11.69168
       O    18.38997  -13.32028   11.38857
      H1    18.30715  -12.73952   12.14353
       H    15.67191  -18.11784   13.95446
       O    14.88883  -18.67106   14.13726
      H1    14.25014  -18.03282   14.44025
       H    14.24958  -13.55189   12.38365
       O    14.39512  -14.38299   11.89489
      H1    14.89224  -14.07635   11.10757
       H    17.23369  -13.17331   17.84223
       O    17.59855  -13.47899   18.72442
      H1    17.86876  -12.73341   19.35655
       H    12.79448  -11.16781   10.80787
       O    12.50858  -11.98908   11.20812
      H1    11.58687  -12.10066   10.91280
       H    13.43578  -11.94895   12.60327
       O    14.31706  -11.94292   13.05113
      H1    14.06519  -12.07181   13.92267
       H     3.40333  -18.77786   12.95909
       O     4.33609  -19.09043   12.95394
      H1     4.23151  -19.91848   12.45026
       H    14.31031  -15.44781   17.88412
       O    14.94694  -15.79617   17.23813
      H1    14.48616  -15.49191   16.41094
       H    10.62045  -15.68497   11.57376
       O    11.34040  -15.51892   12.23530
      H1    12.12672  -15.49425   11.64532
       H    13.08902  -12.90530    9.89604
       O    13.29068  -13.41205    9.10957
      H1    14.22924  -13.46864    9.07814
       H     4.43785  -17.61762    7.89972
       O     3.84721  -17.58568    8.65576
      H1     4.51591  -17.67262    9.36444
       H    12.62334  -13.47342   14.97074
       O    13.49357  -13.43963   15.36489
      H1    13.38654  -13.66427   16.30414
       H    18.20107  -15.88409   19.85619
       O    18.54585  -15.93133   18.93841
      H1    18.09197  -15.15060   18.62532
       H    10.05343  -13.19809   13.92873
       O    10.87613  -13.66837   14.17849
      H1    10.85893  -14.41438   13.53435
       H     5.52977  -18.66487   14.63105
       O     6.31075  -19.01116   15.10469
      H1     5.81260  -19.51346   15.75275
       H     8.03498  -11.52961   14.29035
       O     8.10661  -12.42316   14.00161
      H1     7.54327  -12.86289   14.67092
       H    17.09729  -11.30291   13.36541
       O    17.99074  -11.55860   13.70717
      H1    18.46064  -10.73063   13.70843
       H     5.23521  -16.73899   18.91704
       O     5.26922  -16.95904   17.94907
      H1     4.89744  -16.21604   17.55387
       H    17.62217  -17.06337    8.59125
       O    17.01082  -17.83711    8.66796
      H1    16.21363  -17.37023    8.40366
       H    12.68155  -15.17122    9.35128
       O    12.51567  -16.03142    9.75535
      H1    13.26002  -16.13304   10.34242
       H     8.84618  -19.32995   11.38381
       O     8.39590  -18.64175   11.92793
      H1     7.51639  -18.65766   11.47881
       H    17.20441  -19.71235    6.26279
       O    17.93929  -19.10926    6.50938
      H1    17.56492  -18.68356    7.32263
       H    17.24546  -18.33854   17.30908
       O    16.71931  -17.93467   16.63712
      H1    16.02644  -17.30086   17.08765
       H     5.13390  -14.94113   10.65129
       O     4.44427  -14.43168   10.25239
      H1     3.72258  -14.96489   10.64704
       H     7.54454  -15.73789   11.04730
       O     6.58317  -15.82760   11.27779
      H1     6.66302  -15.91148   12.25831
       H    15.63347  -14.38676   13.37059
       O    16.05768  -14.73521   14.15683
      H1    15.93143  -14.18780   14.94509
       H    14.68573  -15.84484    7.47924
       O    14.79736  -16.09539    8.43050
      H1    13.83495  -16.30511    8.64716
       H     8.27828  -12.08549   12.38196
       O     8.76499  -11.88813   11.57316
      H1     8.13045  -12.07534   10.87600
       H    12.48577  -16.40771    6.88569
       O    12.18498  -17.32120    6.89483
      H1    12.80361  -17.73792    7.48940
       H    11.64921  -19.19426   10.77980
       O    10.98386  -18.92477   10.16080
      H1    11.33303  -18.01131   10.03814
       H    18.53559  -16.96114   12.59807
       O    19.11558  -16.31852   12.08421
      H1    19.41526  -16.95225   11.39654
       H     5.33533  -11.72417   17.94536
       O     6.05603  -11.69263   17.28543
      H1     6.80047  -12.09739   17.75079
       H    16.34913  -11.41955   10.53398
       O    16.51815  -10.61869   11.05268
      H1    15.63975  -10.29020   11.35602
       H    12.21314  -18.05715   18.24616
       O    11.80448  -18.85111   18.62637
      H1    11.35902  -18.38784   19.34811
       H     9.86749   -9.23336   12.52660
       O     9.15679   -9.23104   11.88647
      H1     9.02371  -10.19658   11.72609
       H    17.46468  -12.41942   15.42525
       O    16.80192  -12.52154   16.14935
      H1    16.46700  -11.56487   16.25396
       H    12.74019  -13.87268    7.47413
       O    12.66056  -14.50407    6.73633
      H1    11.84154  -14.16627    6.30628
       H     4.56305  -14.82950   15.84572
       O     3.77765  -15.21455   16.27738
      H1     3.34475  -14.42529   16.67813
       H    11.73055   -8.91475   18.18271
       O    10.95251   -9.39834   17.79701
      H1    11.16262  -10.33869   17.91179
       H     5.48554  -18.60498   11.80533
       O     5.79766  -18.34319   10.89391
      H1     6.05744  -17.42382   11.04126
       H     7.18810   -9.23617   14.48327
       O     8.08875   -9.52544   14.38898
      H1     8.33135   -9.43001   13.38623
       H     9.14107  -16.99903   10.83593
       O     9.21358  -16.11827   10.34379
      H1     9.48619  -16.44854    9.39953
       H     1.89251  -15.12693   12.71411
       O     2.37641  -15.57613   12.01941
      H1     3.29498  -15.32438   12.26370
       H    16.27614  -13.47312    9.12455
       O    15.95577  -13.18285    9.99051
      H1    16.69166  -13.33225   10.62761
       H     8.53340  -13.93249   18.76185
       O     8.47976  -13.38202   18.02991
      H1     9.21396  -12.69459   18.23284
       H    17.06254  -16.50295   14.18204
       O    17.27993  -17.39026   13.95154
      H1    16.95060  -17.77394   14.80467
       H    12.57095  -14.60504   18.16688
       O    13.03082  -13.80512   17.98735
      H1    13.74557  -13.83523   18.66776
       H     5.88764  -12.93678   16.15019
       O     6.01909  -13.49529   15.37982
      H1     5.71122  -12.86357   14.66145
       H     8.68819  -16.40117   17.69310
       O     8.27258  -16.71853   18.48124
      H1     7.29957  -16.84287   18.28053
       H    13.92266  -19.61267   10.98563
       O    13.58451  -18.79003   11.31330
      H1    14.00833  -18.76141   12.26034
       H     6.31109  -15.59592   14.67917
       O     6.49062  -16.35692   14.11087
      H1     7.34928  -16.59738   14.39909
       H     8.81467  -19.62624    6.15200
       O     8.63094  -19.82882    7.06914
      H1     9.01103  -19.03095    7.45809
       H    12.12395  -16.81286   13.82983
       O    12.58275  -17.22534   14.57751
      H1    12.12902  -18.05681   14.72768

