180
frame 5 | Written by MDAnalysis XYZWriter (release 2.4.3)
       H   -16.13723   -6.98661   -2.95326
       O   -16.26958   -6.40641   -3.74815
      H1   -16.18124   -7.00519   -4.52440
       H   -14.12558   -2.91205   -3.90373
       O   -13.83534   -2.38726   -3.14568
      H1   -14.63436   -2.18203   -2.60738
       H   -11.81427   -7.32667   -2.03211
       O   -11.66379   -8.26244   -2.09072
      H1   -10.81231   -8.28264   -2.57197
       H   -16.68966   -5.84641    0.59417
       O   -16.12184   -5.57283    1.35057
      H1   -15.71070   -6.35996    1.63154
       H    -7.33298   -8.33069   -6.74318
       O    -7.58050   -8.69114   -5.88165
      H1    -6.98768   -8.16521   -5.31434
       H   -11.99364   -3.19891   -4.12828
       O   -12.09475   -3.59265   -4.99623
      H1   -11.96260   -4.51577   -4.83427
       H   -11.12713   -2.42675    0.10213
       O   -10.84457   -1.57433   -0.26297
      H1   -10.02145   -1.33521    0.16462
       H    -9.42530   -7.65018   -8.90263
       O   -10.15586   -7.09054   -8.53731
      H1   -10.61633   -6.87789   -9.32265
       H    -8.83129   -9.00466    1.39578
       O    -9.21677   -9.48325    2.13941
      H1    -9.18323   -8.83615    2.79838
       H    -5.83049   -5.35656   -2.95074
       O    -5.47687   -5.11077   -2.06237
      H1    -4.56696   -4.86779   -2.25115
       H    -7.78412  -10.22136   -2.83026
       O    -7.17539  -10.95177   -2.84950
      H1    -7.11558  -11.16767   -1.88323
       H   -16.61513   -2.91487   -0.50623
       O   -17.14760   -2.78825   -1.35551
      H1   -18.09014   -2.69927   -1.03827
       H   -11.11471  -11.89870   -2.16108
       O   -11.16168  -12.76161   -2.60249
      H1   -11.99605  -13.13661   -2.17342
       H   -12.78586   -3.26090    0.73740
       O   -11.96784   -3.79778    0.78280
      H1   -11.94842   -4.08716    1.69956
       H   -13.30268   -6.79026    4.40274
       O   -13.78668   -5.94660    4.21452
      H1   -14.50641   -6.04803    4.87046
       H   -11.07102   -6.18177   -6.37191
       O   -11.30616   -6.34616   -5.50442
      H1   -11.05878   -7.27265   -5.45444
       H    -6.88579   -5.97121   -0.69831
       O    -7.79500   -6.19847   -0.50367
      H1    -7.86465   -5.82458    0.36916
       H    -9.30023   -8.76718    5.51559
       O    -9.61457   -8.33842    4.73362
      H1   -10.56150   -8.38044    4.70774
       H   -12.89599  -10.75275    0.02144
       O   -13.83582  -10.73947    0.26120
      H1   -14.36918  -11.00432   -0.47983
       H   -11.72352   -2.04917    3.61150
       O   -10.96657   -2.46634    4.01572
      H1   -11.14521   -3.40631    3.79174
       H    -9.70083  -11.97878   -7.06584
       O   -10.24945  -11.43759   -6.55610
      H1   -10.79402  -12.07708   -6.10368
       H   -13.38603   -8.51309   -3.70818
       O   -13.66407   -8.83402   -4.58823
      H1   -14.49406   -8.42086   -4.85658
       H   -16.31960   -8.67789    1.89261
       O   -15.91881   -8.50199    1.01059
      H1   -15.28191   -9.24996    0.90918
       H    -7.78222   -3.81564    1.30449
       O    -8.15526   -2.87218    1.15958
      H1    -7.71664   -2.71176    0.29418
       H    -7.92374  -11.52964   -5.09767
       O    -7.30873  -11.50064   -5.83031
      H1    -7.36344  -10.59073   -6.08210
       H    -9.71403   -1.53949   -4.38513
       O    -8.96928   -1.27751   -4.94883
      H1    -8.40912   -0.73864   -4.37392
       H   -15.59393   -4.23874    0.64924
       O   -15.10202   -3.54856    0.25952
      H1   -15.29135   -2.72506    0.81349
       H   -13.05936  -10.99140   -7.96564
       O   -12.31279  -11.21700   -8.54801
      H1   -11.54027  -11.32972   -7.93734
       H   -15.23721  -13.01087   -0.38925
       O   -15.31076  -12.76086   -1.29896
      H1   -16.20553  -13.09965   -1.49013
       H    -9.03048   -7.48312   -3.01371
       O    -8.98932   -8.46280   -2.98696
      H1    -9.22321   -8.56474   -3.92634
       H   -11.52342  -12.68379   -4.28409
       O   -11.87560  -12.96740   -5.14247
      H1   -12.66589  -12.41398   -5.14323
       H   -11.74336   -9.42262   -5.21392
       O   -10.84613   -9.09527   -5.20126
      H1   -10.46340   -9.61143   -5.92652
       H   -10.00864  -10.93236    3.32896
       O   -10.54233  -11.75883    3.47172
      H1   -10.14034  -12.03601    4.33519
       H    -8.27023   -4.78863   -9.19382
       O    -8.50848   -5.00057   -8.23891
      H1    -9.03936   -5.78729   -8.34107
       H   -10.49989   -5.49700   -2.42186
       O    -9.63024   -5.86875   -2.60604
      H1    -9.17978   -5.68408   -1.73789
       H   -10.18396  -10.39693   -0.32624
       O   -11.05033  -10.39269   -0.73724
      H1   -11.11239   -9.51525   -1.17148
       H    -6.39128   -5.08451    2.28269
       O    -7.32391   -5.25282    2.06694
      H1    -7.75263   -5.16051    2.98595
       H   -11.65011   -2.21789   -6.59257
       O   -12.05949   -1.47208   -7.02893
      H1   -11.25773   -0.95027   -7.12885
       H   -13.38443  -14.13039   -3.71890
       O   -13.47432  -14.07227   -2.74273
      H1   -14.17558  -13.36209   -2.66595
       H    -5.30906   -2.43611   -1.19611
       O    -6.21025   -2.76952   -1.39574
      H1    -5.94619   -3.64872   -1.70614
       H   -10.89451   -8.17242    1.30793
       O   -11.23557   -7.28306    1.29747
      H1   -11.67582   -7.16178    0.44255
       H    -7.47970   -8.42928   -0.48543
       O    -7.73783   -9.28890   -0.15649
      H1    -6.83503   -9.73584   -0.14302
       H   -17.78658   -7.04270   -1.49862
       O   -17.05740   -6.82632   -0.91205
      H1   -16.88828   -7.72541   -0.53462
       H   -11.34889   -6.10479    2.63852
       O   -11.29763   -5.29824    3.21818
      H1   -12.17710   -5.35929    3.62208
       H   -15.72815   -4.73480   -4.62664
       O   -14.82984   -4.58655   -4.98937
      H1   -14.35926   -5.30090   -4.56331
       H   -12.72232   -8.11869   -6.86406
       O   -12.82380   -8.17143   -7.80263
      H1   -11.95077   -7.95626   -8.11921
       H   -13.06763   -5.38247   -1.31528
       O   -12.13533   -5.40276   -1.27946
      H1   -11.97571   -4.81844   -0.47758
       H   -12.61869   -9.04358    4.94006
       O   -12.45708   -8.52985    4.15176
      H1   -13.15836   -8.94481    3.60680
       H   -13.86816  -11.27969    3.34457
       O   -14.27936  -10.38484    3.30930
      H1   -14.85531  -10.51020    2.53740
       H   -14.94390   -3.27398    4.52923
       O   -15.24205   -3.43735    3.62280
      H1   -14.67681   -4.18655    3.37877
       H    -5.80175  -10.03018   -2.88134
       O    -5.24139   -9.28650   -3.06825
      H1    -4.94815   -9.40260   -3.98676
       H   -15.35484  -10.85178   -3.84004
       O   -16.19930  -10.71798   -3.37829
      H1   -16.07492  -11.12308   -2.51339
       H   -14.83561  -11.40012   -6.69242
       O   -13.96740  -11.39798   -6.33549
      H1   -13.97743  -10.45440   -5.94620
       H    -8.46953   -2.83668   -5.77017
       O    -7.92655   -3.53657   -6.07111
      H1    -8.31375   -3.84784   -6.84749
       H    -7.72100   -5.91655   -3.80455
       O    -7.00492   -5.76175   -4.41148
      H1    -7.24890   -4.93783   -4.88047
       H    -9.68144   -5.38571    4.13143
       O    -8.69693   -5.52601    4.30140
      H1    -8.73323   -6.46117    4.47371
       H   -17.25777   -5.05957   -3.31267
       O   -18.05314   -4.53235   -3.09425
      H1   -17.67699   -3.73187   -2.61173
       H   -11.05622   -1.22410   -1.96492
       O   -11.42685   -1.40692   -2.86118
      H1   -12.28100   -1.78573   -2.58639
       H   -13.78656   -6.11092  -10.14009
       O   -13.46547   -5.78481   -9.30272
      H1   -13.60277   -6.54199   -8.76063
       H   -16.56377   -8.78150   -5.92235
       O   -15.90562   -8.06090   -5.85642
      H1   -16.21270   -7.41822   -6.46762

