180
frame 0 | Written by MDAnalysis XYZWriter (release 2.4.3)
       H   -12.64978   19.48352   -8.17908
       O   -12.82893   19.64742   -9.13713
      H1   -12.59165   18.79161   -9.50667
       H   -14.96674   14.72064    4.70422
       O   -14.19833   15.09385    5.18236
      H1   -13.61365   15.04607    4.43560
       H   -19.42893   12.70196    2.43545
       O   -19.82292   12.09011    3.12815
      H1   -19.16951   11.39885    3.10935
       H   -18.17202   12.08506   -7.87035
       O   -17.34605   11.91773   -8.43109
      H1   -17.20897   12.77586   -8.83005
       H   -17.62354   15.59942    3.72825
       O   -17.53702   15.32737    2.78191
      H1   -18.44940   15.38987    2.53035
       H   -17.03653   15.09776   -2.98336
       O   -17.71183   14.67100   -3.57789
      H1   -17.61900   13.75797   -3.31837
       H   -12.46922    8.70330   -3.25641
       O   -12.03956    7.99491   -2.74377
      H1   -11.57873    7.58322   -3.44869
       H   -18.24068   14.26639  -10.46016
       O   -18.60857   14.39976   -9.56030
      H1   -18.62119   15.35569   -9.48673
       H   -12.75009   18.89057   -3.54705
       O   -12.18414   18.12598   -3.57160
      H1   -11.85008   18.17081   -2.69632
       H   -14.86774   19.53859   -8.58016
       O   -15.52905   19.17801   -7.99531
      H1   -15.83529   18.42402   -8.54272
       H   -16.64183   16.87607   -9.80749
       O   -15.67179   17.05053   -9.79699
      H1   -15.54234   17.31679  -10.73664
       H   -11.56473   10.10209    0.52765
       O   -11.98388   10.75312    1.10192
      H1   -12.55527   11.27967    0.49550
       H   -15.51241   10.83433   -6.92078
       O   -14.98886   11.61099   -6.84825
      H1   -15.45761   12.22604   -7.48214
       H   -14.96307   13.10352    2.99257
       O   -15.72201   13.43214    3.52762
      H1   -16.15552   13.84888    2.73624
       H   -17.03970   16.60369   -6.19839
       O   -16.54678   15.82373   -6.02847
      H1   -17.17380   15.37497   -5.36027
       H   -16.94170   18.96381   -6.60479
       O   -17.36438   18.36597   -5.95323
      H1   -18.20101   18.82357   -5.86577
       H   -13.80857   18.69951    2.99056
       O   -13.27846   18.09978    2.50632
      H1   -12.36396   18.51393    2.43916
       H   -11.20518   13.87488   -2.56779
       O   -10.30834   14.18054   -2.47900
      H1    -9.94629   13.38096   -2.08944
       H   -18.72990   17.68732   -1.97710
       O   -17.85118   17.55154   -1.75409
      H1   -17.71747   17.30971   -0.83998
       H   -10.48556   10.53013   -1.49432
       O   -10.74473   11.21089   -2.17244
      H1    -9.97362   11.16019   -2.83619
       H   -12.23910   10.00506   -6.53968
       O   -12.03984    9.08710   -6.25432
      H1   -11.22896    9.23738   -5.77320
       H   -17.48950    9.99881    3.57693
       O   -18.27763    9.77620    3.04949
      H1   -17.89620    9.34425    2.28587
       H   -16.76022    9.02182   -1.61344
       O   -15.81289    8.89137   -1.96703
      H1   -15.91655    9.03886   -2.90984
       H   -13.68787   17.94329    0.81822
       O   -13.82840   17.95427   -0.16496
      H1   -14.29671   18.76957   -0.31308
       H   -11.17499   16.41779   -6.95402
       O   -10.24322   16.51178   -6.62085
      H1   -10.29592   16.37305   -5.68167
       H   -16.20991    8.12905   -7.40418
       O   -16.30747    8.72835   -6.65162
      H1   -17.15326    8.31238   -6.34205
       H   -12.39995   14.94490   -7.41405
       O   -12.50735   15.54180   -8.24419
      H1   -13.12528   16.22937   -7.82356
       H   -19.21442   12.33611    0.00917
       O   -18.71948   12.92007    0.59107
      H1   -17.77406   12.67820    0.28886
       H   -14.99964   16.28493   -4.15874
       O   -14.17243   15.95430   -3.73158
      H1   -13.51061   16.54662   -4.16509
       H   -14.78237    8.75378   -0.70303
       O   -13.92546    8.81952   -0.17759
      H1   -14.25495    8.98310    0.72123
       H   -15.46711   15.01592   -8.86035
       O   -15.72471   14.22254   -8.40283
      H1   -16.06827   14.57045   -7.56137
       H   -15.49731   12.12528   -0.42229
       O   -16.00468   12.77939    0.04911
      H1   -16.09031   13.46514   -0.64645
       H   -12.32377   15.36874    2.40953
       O   -12.14359   15.70640    3.29110
      H1   -12.80846   16.48438    3.22638
       H   -12.43713   18.52519   -6.27560
       O   -12.24022   19.47230   -6.45881
      H1   -11.29325   19.55059   -6.28431
       H   -10.34591   15.57335   -3.61068
       O   -10.06214   16.35372   -4.10811
      H1   -10.68462   17.00357   -3.78481
       H   -12.73670   16.70917   -9.81375
       O   -12.43454   17.31975  -10.50689
      H1   -13.26078   17.38419  -11.06120
       H   -15.43777   11.18873    1.42301
       O   -15.51176   10.25242    1.63068
      H1   -15.77246   10.30628    2.57613
       H   -18.96125   17.10737  -10.36158
       O   -18.47215   16.97655   -9.57455
      H1   -18.87045   17.65213   -8.93470
       H   -16.92246   20.00227    1.49947
       O   -17.77718   19.59390    1.78960
      H1   -17.57162   18.66185    1.53663
       H   -15.92438   16.30490   -1.64945
       O   -15.92296   15.29303   -1.70856
      H1   -15.10021   15.15063   -2.26439
       H   -17.74092    8.18223   -0.22359
       O   -17.74928    9.17269   -0.23360
      H1   -17.08928    9.35492    0.42164
       H   -10.68748   15.24646   -1.12729
       O   -11.17493   15.50186   -0.32983
      H1   -11.05514   16.45390   -0.46551
       H   -13.82672   11.84439   -9.28898
       O   -13.71941   12.29267  -10.13595
      H1   -12.78889   12.55405  -10.12912
       H   -14.94715   11.55278   -5.09899
       O   -14.80872   11.42470   -4.14291
      H1   -14.47894   10.50884   -4.05362
       H   -12.30443   13.76165   -5.39124
       O   -12.03951   13.80693   -6.31663
      H1   -11.02726   13.63814   -6.31573
       H   -19.03323    7.30697   -4.84742
       O   -19.53906    7.91510   -5.32156
      H1   -19.42212    8.60675   -4.66570
       H   -16.30525   18.47855   -4.40383
       O   -15.87527   18.39561   -3.52504
      H1   -16.56701   17.93935   -2.99016
       H   -18.24283    9.99523  -11.00697
       O   -17.41881   10.38473  -10.68980
      H1   -17.65434   10.98735   -9.94608
       H   -13.88492   13.22690    1.40166
       O   -13.72615   12.75068    2.18849
      H1   -12.76411   12.57467    2.16235
       H   -17.97623   17.95530    4.31671
       O   -17.09558   18.36535    4.28229
      H1   -17.40036   18.96805    3.61420
       H   -13.52844    8.80602   -5.33178
       O   -14.31383    8.83513   -4.79763
      H1   -15.03446    8.76059   -5.51341
       H   -12.32358   12.45027   -7.19936
       O   -12.52474   11.52480   -7.40030
      H1   -13.50611   11.53505   -7.10673
       H   -14.44788   17.98482   -7.10499
       O   -14.09024   17.25498   -6.59097
      H1   -14.91285   16.70209   -6.66428
       H   -16.46998   16.72091    1.27140
       O   -16.48782   17.39974    0.52704
      H1   -15.52878   17.51775    0.31394
       H   -14.48634   15.22178   -0.29677
       O   -13.85818   14.98951    0.37605
      H1   -12.99713   15.12422   -0.04865
       H   -17.84113   11.31354   -3.60430
       O   -17.25094   11.85841   -3.02661
      H1   -16.37244   11.73213   -3.28752
       H   -13.55465   10.43677   -0.74234
       O   -13.80209   11.37967   -0.78361
      H1   -13.50569   11.69128   -1.63619
       H   -12.03894   18.21658   -0.57403
       O   -11.29348   18.11103   -1.20279
      H1   -10.52904   18.67951   -0.76200
       H   -13.43717   14.22743   -4.01785
       O   -12.78123   13.51628   -3.81848
      H1   -13.44667   12.87845   -3.71858
       H   -16.12553   11.83356    4.42697
       O   -16.06780   10.88150    4.39896
      H1   -15.69639   10.72877    5.27367

