180
frame 1 | Written by MDAnalysis XYZWriter (release 2.4.3)
       H    10.28096    2.43961  -18.92230
       O     9.75570    2.91867  -19.59684
      H1    10.38569    3.41714  -20.09981
       H    14.21728   -0.42204  -19.67678
       O    14.22425    0.08552  -18.83288
      H1    15.00958   -0.11957  -18.28572
       H    11.67957    4.79042  -17.06574
       O    10.96134    5.27770  -16.54729
      H1    10.22350    4.61296  -16.55331
       H    14.14440    4.31179   -8.78126
       O    14.78583    5.09545   -8.99637
      H1    15.59407    4.50613   -8.98997
       H     9.82167   -2.37052  -13.61783
       O     8.91788   -2.27430  -13.32636
      H1     8.46268   -1.78426  -14.04222
       H    11.16513    8.53671  -13.01376
       O    10.42864    7.95532  -12.90367
      H1    10.86835    7.22259  -13.37333
       H    18.95533    0.51359  -11.69285
       O    19.22928    1.23498  -12.30013
      H1    20.00093    1.59578  -11.81144
       H    11.90977   -1.39514  -13.73122
       O    11.52299   -2.25948  -13.67376
      H1    11.88426   -2.65415  -14.48808
       H    14.45293   -1.77101  -11.11344
       O    14.69739   -0.90348  -10.81800
      H1    14.35815   -0.82773   -9.88851
       H     9.44450   -2.06276  -11.46596
       O     9.48344   -2.41277  -10.56579
      H1     8.70102   -3.08394  -10.61954
       H    13.56671   -4.42344   -8.04472
       O    13.24348   -4.14640   -8.97021
      H1    12.46487   -4.75119   -9.01431
       H    16.63153   -0.84051  -10.66548
       O    17.49885   -0.65567  -11.03078
      H1    18.11412   -0.84119  -10.30063
       H     6.37378    2.41898  -13.92956
       O     6.26945    1.46236  -14.01713
      H1     6.50373    1.14160  -13.14454
       H     7.55079    0.05332  -15.03598
       O     8.30695   -0.08849  -15.62256
      H1     9.03801    0.40884  -15.16295
       H    13.87456   -3.75095  -10.73972
       O    14.03233   -3.35518  -11.61052
      H1    13.10985   -3.18122  -11.91517
       H    13.60180    4.60557  -17.86146
       O    13.21319    4.12794  -17.14038
      H1    12.97257    3.26884  -17.51213
       H    17.78151    2.04314  -11.52799
       O    16.89369    2.26162  -11.10861
      H1    17.11230    2.68002  -10.28187
       H    12.70037   -1.04816  -18.19246
       O    12.34470   -1.81963  -17.73059
      H1    11.42821   -1.45755  -17.47717
       H    10.19796    0.98375  -10.94111
       O    10.67138    1.60922  -11.49841
      H1    10.90230    2.32599  -10.85433
       H    14.75848    4.88933  -13.96236
       O    14.38645    5.80184  -13.98967
      H1    13.41332    5.74081  -14.14269
       H     9.02680   -0.63300  -10.20026
       O     9.04042    0.32403  -10.03366
      H1     8.26402    0.51863  -10.56004
       H     8.13242    3.32042  -16.17369
       O     8.45394    4.22803  -16.20275
      H1     8.06673    4.58516  -17.01252
       H    16.61685    5.15921  -12.75716
       O    17.37846    5.68290  -12.42116
      H1    17.96699    5.49298  -13.18342
       H    14.80318   -0.55244   -7.90675
       O    14.02766   -0.02058   -8.24168
      H1    13.32972   -0.66967   -8.02909
       H    11.42600    5.86283  -14.89977
       O    11.67042    5.89187  -13.97842
      H1    11.35783    5.05448  -13.59871
       H    11.17891   -5.43236  -15.73388
       O    10.41036   -5.51584  -15.10609
      H1    10.79706   -5.63210  -14.24273
       H    16.31017   -3.81026  -16.05540
       O    16.51551   -3.04582  -16.68786
      H1    17.40313   -2.82537  -16.38492
       H    18.61353   -1.02150  -14.60803
       O    18.72531   -2.01070  -14.57763
      H1    18.06126   -2.19269  -13.89134
       H     7.44197    4.03750  -14.52502
       O     7.09726    3.88640  -13.61826
      H1     7.91884    3.52042  -13.21728
       H    17.10948   -2.29118  -12.00233
       O    17.07350   -2.99902  -12.65951
      H1    16.10882   -3.06553  -12.71797
       H    15.91240   -3.57072   -8.42511
       O    16.38934   -2.68846   -8.73998
      H1    17.18544   -3.18450   -9.11464
       H    12.73750   -3.52313  -16.82386
       O    12.65859   -4.43867  -16.46124
      H1    13.14117   -4.92379  -17.17294
       H    12.41945    1.36370  -11.70086
       O    13.29616    1.31282  -12.06632
      H1    13.73543    0.59955  -11.56971
       H     9.20500   -4.60158  -15.76738
       O     8.71882   -4.02930  -16.46858
      H1     7.89987   -4.60378  -16.64758
       H    15.44384    2.38005  -17.11996
       O    15.92939    1.64582  -16.85359
      H1    15.53215    1.26218  -16.04504
       H    12.93443    6.16909  -11.97400
       O    12.76690    5.53633  -11.27243
      H1    13.62248    5.48212  -10.74435
       H    10.50524   -4.58076   -8.88593
       O    10.91501   -5.39797   -9.30019
      H1    10.83608   -5.19480  -10.25160
       H    17.77007    4.17914  -18.64721
       O    17.30451    4.49998  -17.84148
      H1    17.90040    5.22635  -17.60435
       H    18.01392   -0.58927  -18.33667
       O    17.07829   -0.41155  -18.34828
      H1    16.94228    0.30572  -17.75045
       H    16.54915    6.48747  -16.10448
       O    15.63055    6.73711  -16.31584
      H1    15.18210    6.25670  -15.63420
       H    12.63991    1.20256  -18.24922
       O    11.96561    1.80657  -17.93795
      H1    12.07995    1.52884  -17.00112
       H    14.32511   -5.10639  -15.53345
       O    15.27534   -5.27644  -15.36570
      H1    15.49957   -5.95392  -16.01620
       H    13.38917   -2.31918   -6.84426
       O    12.58941   -2.10408   -7.35231
      H1    12.64575   -2.77309   -8.08652
       H    18.65416    4.87732  -11.55575
       O    19.23393    4.49664  -10.84865
      H1    18.49899    4.32579  -10.16005
       H     9.60020    4.40794  -12.17633
       O     9.98176    3.86130  -12.90723
      H1    10.23213    2.97713  -12.52462
       H    10.84307    1.11256  -14.55405
       O    10.49189    1.67448  -15.26219
      H1    10.34140    2.51747  -14.78176
       H     6.40366    1.87175  -16.84865
       O     7.16643    2.08334  -17.40336
      H1     7.70859    1.29221  -17.23754
       H    13.25916    0.59422  -13.68839
       O    12.82480    0.03253  -14.32023
      H1    13.59196   -0.29656  -14.88480
       H    15.60858   -0.63292  -14.86150
       O    15.02548   -0.80764  -15.60513
      H1    15.55541   -1.41089  -16.16498
       H     6.55933    1.82976  -10.99447
       O     6.78909    1.07673  -11.56429
      H1     6.14282    0.35816  -11.33434
       H     6.62632   -3.99157  -14.11839
       O     7.22204   -4.52513  -13.57225
      H1     7.92867   -3.83050  -13.48711
       H    17.73440    2.38727  -15.59482
       O    17.86785    3.29366  -15.23456
      H1    17.57847    3.84274  -15.96480
       H    10.19193    4.82910   -9.72773
       O    10.75983    4.13133  -10.12298
      H1    11.44481    4.69899  -10.49930
       H    11.99571    3.64972   -8.66685
       O    12.82473    3.19588   -8.42307
      H1    12.88606    2.38587   -8.97957
       H     9.18251   -0.32033   -8.37302
       O     9.40577   -0.51231   -7.47005
      H1     8.57229   -0.90158   -7.15443
       H    17.64396    4.62893   -8.24826
       O    17.34607    3.70952   -8.60221
      H1    17.57503    3.23335   -7.79548
       H    15.26254    0.95967  -12.64895
       O    15.83692    0.37372  -13.22330
      H1    16.51784    0.17347  -12.53147
       H    16.78428    3.21550  -13.86626
       O    16.00663    3.52176  -13.45759
      H1    16.15379    3.32930  -12.52542
       H    19.61994    0.22137  -16.33768
       O    18.94716    0.41198  -15.66637
      H1    19.33916    0.75468  -14.87522
       H     9.19810   -1.03026  -16.77752
       O     9.52662   -1.71696  -17.42696
      H1     9.06779   -2.55996  -17.26906

