180
frame 96 | Written by MDAnalysis XYZWriter (release 2.4.3)
       H    -3.36985   -1.04621   13.26768
       O    -3.46484   -0.78584   14.22342
      H1    -3.81026    0.08561   14.17171
       H    -0.35565    5.76361    8.33351
       O    -1.10825    6.07470    8.86652
      H1    -1.37987    5.29793    9.33959
       H     4.34024    0.98529    6.54845
       O     4.46119    1.72375    5.95170
      H1     5.29169    2.20920    6.24973
       H    -5.10360    1.54005    3.74248
       O    -4.69767    0.70157    3.88420
      H1    -5.38389    0.34318    4.49383
       H     2.81280   -0.55711   12.80932
       O     2.34207   -0.18227   13.59246
      H1     1.40082   -0.41186   13.41464
       H    -4.06701    6.55633   10.12448
       O    -3.73068    7.06140   10.89159
      H1    -3.59520    6.34716   11.52458
       H    -0.80833    2.37685   13.57389
       O    -1.33476    1.55425   13.53301
      H1    -2.08502    1.97365   13.04292
       H    -0.50350    0.24756   12.92780
       O    -0.30667   -0.71252   12.72315
      H1    -0.71520   -1.12790   13.49180
       H     1.60260    2.76646   10.55823
       O     1.15262    3.63193   10.90550
      H1     1.68817    4.33047   10.49169
       H     2.36891   -3.88458   10.10403
       O     2.46244   -4.43210    9.30036
      H1     1.51309   -4.57312    9.02278
       H    -5.68717    4.04848   10.31596
       O    -5.42774    3.11462   10.30567
      H1    -4.50214    2.95813   10.05150
       H    -5.64627    1.48732   14.74876
       O    -5.24900    1.95755   13.99642
      H1    -6.02232    1.89727   13.41659
       H    -4.71913    4.71516    6.72854
       O    -4.55461    4.20085    5.94552
      H1    -5.02480    4.75219    5.32655
       H     2.91051   -3.23042    7.56606
       O     2.79265   -2.28867    7.46622
      H1     2.23250   -2.19153    8.25922
       H    -1.34930   -1.69658    4.49648
       O    -1.05035   -2.59838    4.34363
      H1    -1.79687   -2.85600    3.73345
       H    -2.52843   -3.94176   14.33129
       O    -1.59301   -4.00644   13.99675
      H1    -1.75322   -3.96930   13.02022
       H     4.54097    1.11292   12.16535
       O     5.05525    1.38731   12.94900
      H1     5.16960    2.34867   12.82569
       H     3.37619    3.05913    8.39275
       O     2.68066    3.08433    7.71211
      H1     3.21158    2.68824    7.00171
       H    -2.31461   -4.83605   11.18864
       O    -1.60839   -4.16623   11.17353
      H1    -1.97532   -3.47876   10.60431
       H     1.57106    4.62139    7.27188
       O     0.77014    5.00305    6.99996
      H1     0.25126    4.18768    6.83578
       H    -7.55822   -3.28123    9.17904
       O    -7.99654   -2.39146    9.26564
      H1    -7.35598   -1.93698    9.90012
       H    -5.78796   -1.80061   11.57889
       O    -6.57747   -1.26667   11.38703
      H1    -7.04016   -1.32379   12.25692
       H     3.60723   -2.32529   11.04816
       O     2.63721   -2.35448   11.41302
      H1     2.78094   -2.74164   12.27804
       H    -2.02258   -1.12172   11.57334
       O    -2.94790   -1.40227   11.57238
      H1    -3.13657   -1.59914   10.64357
       H    -3.89193    2.12653   11.63761
       O    -3.02770    2.42349   11.89467
      H1    -3.18269    3.38597   12.08879
       H    -4.26484   -3.68513    6.61518
       O    -4.48783   -2.74298    6.65024
      H1    -4.94728   -2.54506    5.82746
       H     0.47870    0.49386    5.62568
       O     0.48067   -0.34008    6.08249
      H1    -0.33883   -0.29190    6.63716
       H     1.06689   -1.32884   10.39129
       O     0.80237   -0.90465    9.58742
      H1    -0.01875   -0.49366    9.88576
       H    -1.87714    1.46524   15.21487
       O    -2.13707    1.40126   16.12050
      H1    -1.41382    0.91949   16.53461
       H     1.21564    1.81763    3.90891
       O     0.82438    2.14434    4.72892
      H1    -0.10036    2.32707    4.51630
       H    -0.68666   -3.95522    9.18743
       O    -0.11684   -4.68892    8.77864
      H1    -0.20373   -4.41927    7.82729
       H    -2.89480    0.80282    4.15392
       O    -1.96670    0.54212    4.37456
      H1    -1.47796    0.85614    3.60152
       H    -5.98249    5.98234    8.38615
       O    -5.11704    5.54738    8.49718
      H1    -4.52721    6.28782    8.28937
       H    -3.23287    0.39629   10.05595
       O    -4.25453    0.38185    9.99274
      H1    -4.29936    0.90972    9.19265
       H    -3.43979   -2.78259    8.09491
       O    -2.98798   -3.03666    8.90916
      H1    -3.15275   -3.99547    8.92887
       H    -5.18986    1.08868    6.98859
       O    -4.76350    1.77136    7.61321
      H1    -5.01332    2.57807    7.19116
       H    -2.57481    7.01377    8.27753
       O    -3.28271    7.26874    7.64751
      H1    -3.47866    8.20921    7.85555
       H     1.45245    2.84343   12.63114
       O     1.15459    2.62878   13.55189
      H1     1.50100    1.70063   13.59856
       H     2.32592   -0.67609    5.43083
       O     2.96948   -0.89188    4.77157
      H1     2.70523   -1.80831    4.57310
       H     3.73786    5.47243    8.13508
       O     4.51572    6.06485    8.05524
      H1     4.56390    6.19955    7.10832
       H    -6.15323    2.02075   11.43494
       O    -6.87929    1.58479   11.90709
      H1    -6.60755    0.63874   11.79809
       H    -1.84474    5.27190   12.87313
       O    -2.80333    5.03998   12.73462
      H1    -3.09192    4.89258   13.70850
       H    -5.44771   -1.26452    6.76811
       O    -5.73837   -0.44749    6.31404
      H1    -6.70276   -0.42920    6.52499
       H    -1.61988    0.30411    8.82512
       O    -1.50244    0.45890    9.73789
      H1    -1.47079    1.45532    9.71527
       H    -1.79311    0.73948    6.08642
       O    -2.11349    0.84302    7.00921
      H1    -3.03398    1.05132    6.81080
       H    -0.44719   -3.70202    5.77852
       O     0.06136   -4.43493    6.16038
      H1    -0.08045   -5.17443    5.48569
       H     4.84878    0.74000    8.93731
       O     4.77667    1.63958    9.36504
      H1     5.31463    2.24006    8.81996
       H     2.03370    0.51996   10.23460
       O     2.44457    1.29085   10.66813
      H1     3.19367    1.46444   10.01931
       H    -0.16439    6.36661   12.57965
       O    -0.30709    5.51216   12.92752
      H1    -0.09832    4.96336   12.15420
       H    -8.18070    2.76856    9.59436
       O    -7.67466    2.53942    8.77603
      H1    -6.77049    2.49560    9.20028
       H     2.05840    4.44460    3.27271
       O     2.14687    4.80087    4.18231
      H1     1.84337    3.99571    4.63560
       H    -6.39086    3.30136    5.48352
       O    -7.31184    2.99078    5.36366
      H1    -7.70561    3.51997    4.65597
       H    -2.99612    2.93137   15.70823
       O    -3.61963    3.63349   15.35460
      H1    -4.10580    3.01941   14.79555
       H    -2.05558    2.89825    6.71618
       O    -1.47264    3.70236    6.48860
      H1    -2.05574    4.23592    5.98528
       H     5.48967   -0.69592    7.14973
       O     4.89301   -0.60020    7.87320
      H1     4.19530   -1.21504    7.71633
       H     1.92169    6.76488   10.77587
       O     2.11751    6.38755    9.91648
      H1     2.99904    6.09272   10.11261
       H     0.05703    7.89226    5.82986
       O     0.25489    8.13468    6.76351
      H1     0.59700    7.30641    7.15165
       H     4.69241    5.39275   10.34758
       O     4.06851    4.67195   10.30703
      H1     3.78841    4.75027   11.21567
       H     2.31470    5.36494   14.93419
       O     2.19888    4.67194   15.61981
      H1     1.75160    3.99274   15.07108
       H    -0.37238    3.47709    9.31741
       O    -1.33091    3.34825    9.21506
      H1    -1.47036    3.59480    8.29137

