180
frame 9 | Written by MDAnalysis XYZWriter (release 2.4.3)
       H    18.00781  -13.72302   -6.63957
       O    17.97596  -14.03463   -7.54973
      H1    17.56530  -13.34810   -8.07786
       H    19.10790  -15.64277   -8.32503
       O    19.65332  -16.43066   -8.20029
      H1    20.11922  -16.42413   -9.04256
       H    19.47378  -17.48769   -2.68268
       O    19.16538  -16.92822   -3.40909
      H1    18.20247  -17.06509   -3.50455
       H    17.16201  -15.63167    0.01309
       O    17.00949  -14.74015   -0.32543
      H1    16.39904  -14.88907   -1.09813
       H    19.10298  -10.12133   -7.57915
       O    18.16503  -10.21072   -7.72484
      H1    17.76403  -10.24749   -6.86172
       H    18.49599  -13.79258   -0.30652
       O    19.13329  -13.03375   -0.31778
      H1    19.06429  -12.62299    0.58168
       H    11.71033   -9.55208  -11.42694
       O    11.77997   -8.94166  -10.71951
      H1    12.24495   -8.10321  -11.02384
       H    12.33343   -8.26533   -9.21727
       O    12.43276   -7.94862   -8.31279
      H1    13.26198   -8.37886   -8.03410
       H    17.71157   -9.21761   -0.03417
       O    17.35597   -8.48540    0.51884
      H1    16.56406   -8.86504    0.90968
       H    18.00480   -5.42776   -3.62861
       O    18.71714   -6.08910   -3.81958
      H1    19.17183   -6.21123   -3.01720
       H    17.32394  -12.26968   -3.80746
       O    16.54407  -11.81661   -3.40259
      H1    16.43865  -10.98836   -3.87927
       H    16.23105   -4.91300  -11.38745
       O    15.64775   -5.61973  -11.76476
      H1    15.92729   -6.44641  -11.29359
       H    14.95169   -5.21112  -13.50123
       O    14.69941   -4.98035  -14.37087
      H1    13.92172   -5.56228  -14.57324
       H    15.66286  -17.33363   -7.11022
       O    15.74587  -17.87513   -6.30769
      H1    16.42074  -18.47351   -6.59612
       H    14.09588  -12.45227   -1.07784
       O    13.45903  -13.09651   -0.74504
      H1    13.59387  -13.92385   -1.27196
       H    11.56295  -13.44677  -10.43021
       O    10.74545  -13.09395  -10.71809
      H1    10.13678  -13.84648  -10.60516
       H    14.60168  -12.78554   -8.86718
       O    14.88322  -12.31171   -8.10637
      H1    15.78460  -12.02096   -8.51224
       H    14.09106   -8.65232   -1.79206
       O    14.64239   -8.38484   -2.54355
      H1    15.27650   -7.75178   -2.30562
       H    12.38506  -10.73857   -5.08318
       O    12.45641  -11.46927   -5.74334
      H1    12.07113  -11.01817   -6.51046
       H    13.44081  -10.91304  -10.90594
       O    14.15973  -11.35170  -11.41642
      H1    14.24012  -12.19658  -10.97970
       H    14.30077   -2.51220  -10.68999
       O    14.38071   -2.63485   -9.71941
      H1    14.20475   -3.56614   -9.59697
       H    19.85557   -9.35151  -14.75566
       O    19.67041  -10.26962  -14.98756
      H1    18.87786  -10.44467  -14.47313
       H    13.61490  -15.33708   -7.54184
       O    12.90570  -15.61958   -8.09949
      H1    12.25107  -15.91050   -7.46908
       H    15.56364  -15.67989   -2.87298
       O    15.04187  -15.17898   -2.29255
      H1    14.27208  -15.63462   -1.99609
       H    12.01187   -9.87502   -3.43003
       O    12.48179   -9.29407   -4.00574
      H1    13.30778   -9.11257   -3.48574
       H    14.52829  -10.51015   -8.26047
       O    14.83558   -9.56199   -8.31951
      H1    15.28664   -9.46437   -7.48074
       H    14.80245  -14.27914   -5.84003
       O    15.25074  -14.89226   -6.42216
      H1    15.96603  -14.44812   -6.82756
       H    16.63877   -3.84184   -2.89998
       O    16.75217   -4.22467   -3.73227
      H1    15.95574   -4.73564   -3.97479
       H    16.91479   -2.92081  -12.09662
       O    17.37756   -3.15344  -11.28208
      H1    17.16596   -2.48451  -10.60498
       H    14.95605   -6.85828   -5.46953
       O    15.35592   -7.58812   -5.97579
      H1    15.87891   -6.99129   -6.53191
       H    17.17586   -2.26026   -8.47354
       O    16.96721   -1.53749   -9.11454
      H1    16.04818   -1.80213   -9.32607
       H    13.25267  -14.39703   -9.28963
       O    13.42850  -13.77756  -10.01416
      H1    13.59480  -14.37320  -10.75937
       H    13.32390   -5.64953   -8.19189
       O    14.18171   -5.06975   -8.25541
      H1    14.00218   -4.46038   -7.51046
       H    13.45622  -12.95752   -4.42938
       O    13.48035  -13.84662   -4.06011
      H1    14.33278  -13.87446   -3.57722
       H    10.54802  -11.66403  -12.03119
       O    11.15545  -11.00225  -12.38068
      H1    11.94315  -11.55676  -12.55417
       H    16.05927   -8.15360  -14.59999
       O    15.37084   -8.81400  -14.60010
      H1    14.94625   -8.69856  -15.45667
       H    15.08140  -17.13473  -10.07199
       O    15.64351  -16.67996   -9.42902
      H1    16.20880  -17.37520   -9.05510
       H    15.56597   -9.04043  -11.79693
       O    15.81048   -8.36720  -11.19429
      H1    15.55523   -8.58642  -10.30522
       H    19.34813  -11.85879   -5.31859
       O    18.85342  -12.64002   -4.96493
      H1    19.60089  -13.25364   -4.73209
       H    14.34360   -6.58468   -3.43648
       O    14.27151   -5.80952   -3.98113
      H1    13.32135   -5.61694   -4.12270
       H    18.74805   -6.97850   -8.78469
       O    17.91660   -7.10939   -9.27464
      H1    17.93129   -7.95308   -9.80070
       H    15.87548   -2.22529   -5.88787
       O    16.77251   -2.14697   -5.43407
      H1    16.89754   -2.94596   -4.91253
       H    18.75514  -10.02778  -11.23581
       O    18.35696   -9.14294  -11.15851
      H1    17.48587   -9.12275  -11.53696
       H    13.84717   -6.24948  -11.47949
       O    12.97511   -6.70717  -11.51215
      H1    12.28173   -6.03822  -11.27218
       H    15.45451  -10.56044  -15.52223
       O    15.42501  -10.94753  -16.40797
      H1    14.72113  -10.42110  -16.84273
       H    17.66318  -11.18297   -9.07070
       O    17.14314  -11.99325   -9.43610
      H1    16.64016  -11.65142  -10.19016
       H    18.19953   -5.43603  -14.69999
       O    19.00891   -5.17493  -14.28658
      H1    19.63845   -5.57581  -14.94213
       H    16.49703   -6.66578  -16.18858
       O    16.66860   -6.57599  -15.25125
      H1    15.87018   -6.17709  -14.91453
       H    16.60788   -9.06099   -5.09631
       O    17.31131   -9.68170   -5.13206
      H1    18.14487   -9.15738   -5.12714
       H    17.37354   -5.94561   -1.20596
       O    16.55991   -6.39271   -1.00540
      H1    16.83901   -7.19694   -0.43911
       H    11.45477   -9.73295   -8.21883
       O    10.89432  -10.12627   -7.56392
      H1    10.44380  -10.93281   -7.99977
       H    16.22513  -14.52554  -12.57034
       O    15.55098  -13.85278  -12.72382
      H1    15.62407  -13.66978  -13.64717
       H    17.56625   -2.98993   -6.77814
       O    17.93715   -3.39878   -7.61077
      H1    17.52316   -4.23275   -7.71093
       H    15.91346  -17.40264   -4.51708
       O    16.40200  -17.18023   -3.72874
      H1    16.07154  -17.68806   -2.97843
       H    12.22924  -12.46987   -2.96621
       O    11.62659  -11.80870   -2.61646
      H1    10.83777  -11.81451   -3.20185
       H    17.74557  -10.38987   -2.01282
       O    18.33262  -10.52152   -1.26454
      H1    18.57956  -11.46925   -1.16587
       H    17.02350   -6.35789   -8.00826
       O    16.65895   -5.76883   -7.30404
      H1    15.86020   -5.42999   -7.70493
       H    16.81713  -11.86560  -13.20874
       O    17.53244  -11.16886  -13.17489
      H1    18.10363  -11.40310  -12.43818
       H    11.57981   -7.80459   -4.15515
       O    11.24775   -6.96338   -3.75815
      H1    10.46416   -6.70892   -4.29298
       H    16.79155  -15.88851  -10.81602
       O    17.42716  -15.79987  -11.47707
      H1    17.24742  -16.53463  -12.10314

