180
frame 6 | Written by MDAnalysis XYZWriter (release 2.4.3)
       H     5.08852   -9.99971    9.49223
       O     5.37952  -10.74256   10.15098
      H1     6.30227  -10.49137   10.29066
       H     6.90001  -17.86961   14.88801
       O     6.98164  -16.89521   14.90629
      H1     6.11097  -16.54748   14.51510
       H     7.67912  -17.98210   17.54611
       O     8.58661  -17.74076   17.86732
      H1     8.60107  -16.78505   17.75101
       H     9.02064  -13.79496   13.55650
       O     9.32653  -14.57076   14.00757
      H1     8.90539  -14.58832   14.89668
       H     8.00032  -11.17584   11.55511
       O     8.04436  -10.76130   10.66197
      H1     8.56398  -10.00997   10.87959
       H    12.20631  -13.39059   14.68563
       O    11.59935  -13.41926   15.42624
      H1    10.82633  -13.84305   15.05693
       H     0.43301  -12.07569   11.97561
       O     0.92579  -12.77457   11.56374
      H1     0.91308  -12.63435   10.59471
       H     5.41214  -16.09522   19.51302
       O     6.22260  -15.99263   19.09126
      H1     6.20676  -15.15496   18.64933
       H    11.43813  -11.78056   14.92642
       O    11.44322  -10.82026   14.90696
      H1    11.54207  -10.69386   13.96551
       H     1.78812   -7.23686   13.72348
       O     2.09294   -6.73382   14.45197
      H1     3.02206   -6.55369   14.22725
       H     5.03107  -13.66320   12.41856
       O     5.73217  -14.04793   12.92192
      H1     6.20417  -14.59636   12.29650
       H     8.14750   -8.63400   13.74355
       O     8.71127   -7.99460   13.28241
      H1     9.00625   -8.39353   12.40630
       H    -2.72003  -14.51632   15.17109
       O    -3.24909  -14.89715   15.93576
      H1    -4.17769  -14.70258   15.78562
       H    -3.39466  -12.13915   19.40940
       O    -4.16092  -11.54163   19.48090
      H1    -4.35184  -11.28972   18.53989
       H    11.08826   -9.52249   16.48093
       O    10.69324   -9.25930   17.31811
      H1    10.74814  -10.04950   17.84940
       H     0.13519   -8.80678   12.44851
       O     0.54401   -7.98052   12.42313
      H1     0.13575   -7.41859   11.75851
       H    -1.69848  -16.29003   18.69357
       O    -2.52369  -16.52859   18.22816
      H1    -2.58091  -15.80975   17.53838
       H     7.08502   -3.74323   16.63700
       O     7.05158   -3.55769   15.70635
      H1     6.90675   -4.44685   15.33885
       H    10.24025  -12.11773   19.30463
       O    10.84473  -11.77535   18.60583
      H1    10.93281  -12.62180   18.16960
       H     5.25402  -12.51501    9.87049
       O     4.86188  -13.32713    9.52681
      H1     5.50236  -13.99284    9.75863
       H    -2.26226   -9.35146   12.10893
       O    -1.41832   -9.70353   11.69063
      H1    -1.18829   -9.37189   10.81418
       H     6.91455  -17.53641   11.92112
       O     7.38853  -16.76892   12.22603
      H1     7.28320  -16.65092   13.17761
       H    -2.92193  -10.95463   14.27760
       O    -2.71949  -11.12292   15.22037
      H1    -1.94576  -11.70774   15.16321
       H    -1.08064   -7.82481   17.38751
       O    -1.44039   -8.27673   18.15457
      H1    -0.68129   -8.20579   18.76659
       H     0.37183  -10.89191   17.21706
       O     0.21558  -10.52024   16.29451
      H1    -0.37668   -9.82838   16.57967
       H     6.70069  -11.63744   18.87088
       O     6.47737  -11.17653   18.03739
      H1     7.19456  -10.59155   17.80012
       H     3.67816  -19.92310   16.12494
       O     4.19110  -19.23066   15.65679
      H1     4.58009  -18.64779   16.31665
       H    -1.50281   -6.33608   15.60017
       O    -0.78782   -6.87562   15.84186
      H1    -0.04177   -6.79648   15.23988
       H     3.74484   -9.96010   14.58015
       O     4.27171   -9.50220   13.89661
      H1     3.96825   -9.77576   13.02745
       H     7.95779  -15.98405   16.14482
       O     8.44849  -15.20508   16.41348
      H1     7.86320  -14.52549   16.79918
       H    -0.84193  -10.53104   13.08581
       O    -0.30031  -11.24372   13.43409
      H1     0.01134  -10.92348   14.29096
       H     0.47555  -16.17910   19.82556
       O    -0.09049  -15.82703   19.15292
      H1     0.36525  -16.27913   18.42087
       H     2.95553  -10.04840   16.51486
       O     3.25178  -10.93203   16.22777
      H1     3.97517  -11.19463   16.75731
       H     7.52562  -11.59568   13.63025
       O     7.87762  -12.39373   13.12914
      H1     7.15302  -13.02916   13.12434
       H     3.47864   -8.76232   19.87108
       O     2.55582   -8.88545   19.56662
      H1     2.58280   -8.70735   18.58104
       H     6.12432  -17.21020   17.96078
       O     5.90099  -18.05500   17.45489
      H1     5.46651  -18.62570   18.09500
       H    -1.54017  -13.26225   13.56109
       O    -1.93409  -14.15979   13.61235
      H1    -1.85558  -14.60515   12.75646
       H     2.16747   -8.83448   10.63289
       O     2.00665   -8.36718    9.81252
      H1     1.72797   -7.43385   10.02695
       H     4.67007   -6.39803   12.68732
       O     4.70135   -6.82003   13.57356
      H1     4.81999   -7.78356   13.61281
       H     4.95795   -7.47302   19.14751
       O     4.65072   -6.98425   18.33687
      H1     5.53658   -6.73561   17.97614
       H     3.95057  -10.43383   11.04003
       O     3.15662  -10.31285   11.52941
      H1     3.00871  -11.29203   11.72708
       H     0.78408  -14.79459   15.41595
       O     0.20404  -15.50893   15.07618
      H1    -0.49812  -15.01755   14.54989
       H     1.08540   -4.15500   13.44056
       O     0.85108   -4.33784   14.38092
      H1     1.15181   -5.27919   14.47870
       H     1.64629  -17.69465   17.27881
       O     1.57254  -16.78034   17.20984
      H1     0.92211  -16.68828   16.50442
       H     8.71167   -5.62740   20.24045
       O     9.35485   -6.20251   19.70092
      H1     8.80516   -6.38532   18.92071
       H     0.99536   -6.26907   18.85110
       O     0.64249   -6.95499   19.45518
      H1     1.37933   -7.42277   19.77381
       H     2.50003  -13.87897   16.87380
       O     1.77505  -13.26665   16.60332
      H1     2.21670  -12.39847   16.42378
       H    -0.39843   -3.98986   17.96118
       O     0.15576   -4.64352   17.47681
      H1    -0.29177   -5.30003   16.91170
       H     7.65800   -8.59203   16.83161
       O     8.06426   -9.41143   16.60985
      H1     8.99966   -9.37909   16.91951
       H     6.15754  -12.81024   17.42617
       O     6.15948  -13.74282   17.16944
      H1     5.23404  -14.02088   17.01884
       H     7.26864   -9.64756   15.05214
       O     6.95827   -9.94396   14.15893
      H1     6.01756   -9.93783   14.20187
       H     7.12856  -15.26101    9.52385
       O     7.35889  -14.65712   10.23941
      H1     7.60236  -15.16158   11.04494
       H     3.20630  -15.74486   17.08302
       O     3.88630  -15.16361   16.75764
      H1     4.01806  -15.38152   15.82190
       H     6.38400   -6.50417   14.49187
       O     7.27723   -6.29969   14.81900
      H1     7.78006   -6.76858   14.16937
       H     2.64622  -13.00346   12.00772
       O     3.62568  -13.06221   11.95544
      H1     3.86240  -13.42598   11.09448
       H     7.42562   -6.45115   16.69897
       O     7.24363   -6.42925   17.64035
      H1     7.13306   -5.51706   17.91585
       H     4.79777  -15.09478   14.03543
       O     4.64230  -16.01517   14.19971
      H1     4.06176  -16.24568   13.44107
       H     2.40776   -8.16444   15.95457
       O     2.76629   -8.19986   16.82720
      H1     3.43003   -7.53008   16.93072
       H     1.13976  -15.52333    9.96591
       O     0.31040  -15.18957   10.39571
      H1     0.62329  -14.40309   10.89062
       H     1.08655  -12.59551   17.92617
       O     0.75371  -11.92301   18.52145
      H1     1.48280  -11.75690   19.14602

