180
frame 8 | Written by MDAnalysis XYZWriter (release 2.4.3)
       H   -15.96883    6.40653    9.82302
       O   -15.63203    6.92579   10.59385
      H1   -16.14151    7.71302   10.57333
       H   -17.56510   -1.64718    6.31909
       O   -16.80333   -1.61566    6.92988
      H1   -16.97319   -1.02144    7.68550
       H   -19.10662    0.96776   10.47102
       O   -19.74713    1.50422   10.03675
      H1   -19.26191    2.26551    9.71041
       H   -12.66007    6.78898   11.71020
       O   -13.44729    6.68859   12.28292
      H1   -14.19575    6.87078   11.68395
       H   -16.98114    0.28446   10.14733
       O   -17.32719    0.54581   10.99560
      H1   -16.62228    1.16132   11.28208
       H   -13.26099    2.71608    3.66207
       O   -14.24771    2.78548    3.80355
      H1   -14.30075    3.74542    3.85585
       H   -12.70103   -1.45484   16.57117
       O   -12.54982   -0.54997   16.28984
      H1   -11.91997   -0.73218   15.52754
       H   -10.04934   -2.19559    8.44511
       O    -9.86884   -2.59828    7.54701
      H1   -10.13257   -3.52237    7.59056
       H   -16.32079    2.91502   16.24289
       O   -16.88106    2.15156   16.31816
      H1   -16.39578    1.72401   17.01889
       H   -12.57762    3.80811   15.15094
       O   -11.86992    4.17261   14.58120
      H1   -11.67367    4.99256   15.08816
       H    -9.74866    1.48743   16.44788
       O    -9.90127    2.45325   16.50988
      H1    -9.37570    2.90232   17.22506
       H   -12.91582    3.40004    6.30301
       O   -13.77972    2.99163    6.55454
      H1   -14.09187    2.68100    5.66354
       H   -10.33276   -0.90885   10.50184
       O   -10.84396   -0.89722    9.69357
      H1   -11.63243   -0.48292   10.08041
       H   -14.37567    8.56685   14.44610
       O   -13.42567    8.53049   14.36114
      H1   -13.32725    8.01122   13.52358
       H   -14.28352    3.04537   16.33497
       O   -14.63881    3.78217   15.80187
      H1   -14.57118    4.49218   16.42325
       H    -9.05796    5.10474    9.04475
       O    -8.97943    5.97206    9.57594
      H1    -9.11343    5.65779   10.52940
       H    -9.22896    3.24149   15.10210
       O    -8.40307    3.68566   14.73536
      H1    -7.81589    2.89762   14.82404
       H   -11.17152    1.79876   11.58775
       O   -10.56020    1.76616   10.84086
      H1   -11.14186    2.17970   10.11441
       H    -9.96662    3.56555    7.33532
       O    -9.18279    3.69985    7.86329
      H1    -8.93599    2.77234    8.11371
       H   -11.90939    0.80486    8.15240
       O   -12.18688    1.72369    8.37650
      H1   -12.94456    1.96131    7.83807
       H   -11.21378   -0.08352   13.49069
       O   -11.06186   -0.94726   13.90152
      H1   -10.16071   -1.16014   13.70127
       H   -10.53504    6.64289    9.87045
       O   -11.44610    7.06021    9.91376
      H1   -11.37716    7.95793    9.43960
       H   -18.45457    2.48558   14.28905
       O   -19.06538    1.90098   13.76297
      H1   -18.58529    1.05736   13.75985
       H   -16.83515    4.61980   13.35401
       O   -17.27697    4.60407   14.22733
      H1   -16.59239    4.71255   14.85628
       H    -9.84303    6.04258   12.92026
       O    -9.33137    5.69165   12.18794
      H1    -8.69296    5.17319   12.71347
       H   -15.71623   -3.82740   16.28773
       O   -15.90096   -3.48694   15.43142
      H1   -15.65971   -2.53776   15.48753
       H   -15.42374   -0.64411   16.86327
       O   -15.12156   -1.10307   16.08667
      H1   -14.27127   -0.64340   15.86482
       H   -12.19151   -0.62578    6.06390
       O   -12.17046   -0.93062    6.96974
      H1   -11.41998   -1.51651    7.08720
       H    -8.49734    2.59113   13.01601
       O    -8.31278    2.29480   12.14791
      H1    -9.26573    2.19453   11.81652
       H   -12.67662    6.34052    8.42360
       O   -13.48742    5.99015    8.08531
      H1   -13.35072    5.97145    7.14288
       H   -17.98164    7.73312   13.48100
       O   -17.90176    7.34869   14.40404
      H1   -17.58359    6.41672   14.19765
       H   -14.39183    1.74164   10.92858
       O   -14.75776    1.88962   11.81644
      H1   -14.63230    2.88940   11.86975
       H   -15.94734    3.08237    7.49245
       O   -16.86245    2.86146    7.22620
      H1   -17.36437    3.53187    7.72939
       H    -9.13665    1.16940    9.19548
       O    -8.30721    1.39152    8.72278
      H1    -7.67768    1.24496    9.43499
       H   -14.78842   -4.10672   14.18554
       O   -14.15866   -4.62486   13.71257
      H1   -13.52476   -4.88677   14.44627
       H   -14.38094    5.08756   12.26129
       O   -14.85887    4.31810   12.66995
      H1   -14.58208    4.58341   13.55053
       H   -16.97690    6.37633    7.50782
       O   -16.59187    5.63479    7.98487
      H1   -15.64561    5.75706    7.97650
       H   -12.93307   -1.09076    3.90300
       O   -12.68002   -0.26401    4.42576
      H1   -13.62944   -0.05087    4.68975
       H   -13.97473    5.72075   18.09856
       O   -14.16890    6.01251   17.15392
      H1   -13.29510    5.99278   16.61872
       H   -18.47658   -0.98845   11.38209
       O   -18.84411   -1.81702   11.68245
      H1   -18.16771   -1.99305   12.34791
       H   -11.14905    4.21064    5.25485
       O   -11.41447    4.36669    6.16023
      H1   -10.99510    5.23069    6.28874
       H   -16.14256    1.07958    7.81894
       O   -16.15039    0.35608    8.48267
      H1   -15.24843    0.30105    8.80460
       H   -11.27249   -3.19910   10.21122
       O   -12.21637   -3.31397   10.26844
      H1   -12.44874   -2.71627   11.04698
       H   -16.68631   -0.56763   14.35844
       O   -17.61792   -0.49767   14.54577
      H1   -17.51190   -0.12668   15.43961
       H   -19.45138    0.47657    8.43994
       O   -19.13652   -0.05225    7.69634
      H1   -19.91071   -0.59488    7.59830
       H   -14.35803   -0.79519   10.70398
       O   -13.84379   -0.33763   10.04251
      H1   -13.59816   -1.00753    9.43794
       H    -8.56703   -1.68670   12.56273
       O    -8.49819   -1.02627   11.83821
      H1    -7.85245   -0.35509   12.13790
       H   -13.16007    4.57129    9.61582
       O   -13.19730    3.81757   10.17509
      H1   -13.06473    3.03278    9.59624
       H   -14.50680   -0.89246   13.02667
       O   -15.14786   -0.21858   13.32171
      H1   -14.79765    0.56554   12.90786
       H   -12.94322    1.78909   12.70916
       O   -12.03639    1.70568   13.05642
      H1   -11.75589    2.63756   13.30939
       H   -17.79440    6.13225   10.57290
       O   -18.68920    6.14533   10.86931
      H1   -18.64984    5.51992   11.62812
       H   -14.10208   -5.41694   11.76610
       O   -13.77793   -5.42918   10.80351
      H1   -13.13773   -4.63817   10.88589
       H   -15.14455   -2.69001    7.06107
       O   -14.19191   -3.06569    7.06281
      H1   -13.56744   -2.42305    7.31623
       H   -19.28644    4.67164    9.12672
       O   -18.94289    3.86965    8.65472
      H1   -19.25983    4.02119    7.73250
       H   -16.04319   -5.07306   10.07815
       O   -16.87469   -5.08037    9.62140
      H1   -17.44566   -4.97774   10.38905
       H   -12.24178   -1.99425   13.12207
       O   -13.08797   -2.25179   12.65402
      H1   -13.13198   -3.17700   12.94128
       H   -18.56699   -3.35936   15.73754
       O   -18.97775   -2.82709   15.09355
      H1   -18.29444   -2.21489   14.78381
       H   -12.70082    1.06896   16.60514
       O   -12.58113    2.01783   16.85913
      H1   -11.78174    2.22919   16.40616
       H   -17.49595    3.65312    5.65728
       O   -17.38736    3.88365    4.72191
      H1   -18.14806    4.29048    4.41009
       H   -16.03664   -1.35621    4.46293
       O   -15.70065   -0.60039    4.87224
      H1   -16.08541   -0.79033    5.76717

