180
frame 0 | Written by MDAnalysis XYZWriter (release 2.4.3)
       H    -1.66036   13.46912   -1.41325
       O    -1.49764   13.63034   -0.45695
      H1    -1.81445   14.53276   -0.30974
       H     8.43657   15.73305   -4.46857
       O     9.19132   15.73227   -3.87630
      H1     8.95116   16.28139   -3.13651
       H    -1.65204   18.30597   -0.90975
       O    -1.11213   19.13929   -0.76542
      H1    -0.98512   19.36789   -1.69213
       H    -0.69496   11.22367   -1.04862
       O    -0.86903   10.26424   -1.06387
      H1     0.09951    9.90854   -1.08824
       H     6.67567   14.56445   -1.98511
       O     6.98582   13.67231   -1.84748
      H1     6.69958   13.33206   -2.74841
       H     7.12389   13.81247    2.04993
       O     7.26987   12.86259    2.06204
      H1     6.84342   12.67108    2.88322
       H     3.36064   15.86587   -1.97497
       O     3.78138   16.73849   -2.21938
      H1     3.13965   17.08116   -2.90283
       H     1.98371   17.82151   -1.17593
       O     1.84421   18.11158   -0.26451
      H1     1.07068   18.65064   -0.45348
       H     4.90942   14.71883    1.83839
       O     4.18335   14.33908    1.29301
      H1     4.36097   13.39815    1.19791
       H     1.52056   12.34061    2.04723
       O     1.66756   11.45198    2.34662
      H1     0.79975   11.02639    2.22267
       H    -0.18721   13.88950    2.30498
       O    -0.53800   13.68698    3.23928
      H1    -1.49191   13.95802    3.14104
       H     4.31460   11.72396   -1.14290
       O     3.48641   11.83967   -1.63650
      H1     2.92726   11.12456   -1.38657
       H    -3.02078   16.46768   -0.61860
       O    -2.18939   16.71851   -1.07740
      H1    -2.29627   16.27227   -1.90564
       H     5.55063   11.34752    0.63017
       O     5.86752   11.28921   -0.30455
      H1     6.24906   12.20459   -0.42765
       H    -3.25282   18.57163   -4.10055
       O    -2.95814   19.37206   -3.70328
      H1    -3.47668   19.42878   -2.89913
       H    -1.35576   17.46236   -7.03369
       O    -0.77573   17.81235   -6.31600
      H1    -0.28893   18.55640   -6.65158
       H     9.19817   15.25280    1.04304
       O     8.82852   16.11625    1.20976
      H1     9.56301   16.59754    1.63664
       H    -4.89193   14.40589   -2.59099
       O    -4.09373   14.80579   -3.05661
      H1    -3.68472   14.05826   -3.50892
       H     1.46855   15.66052   -6.91072
       O     0.88273   16.00725   -7.56420
      H1     0.39408   16.65283   -7.05694
       H     4.85072    9.80239    2.07200
       O     4.38211   10.68585    1.96312
      H1     3.41082   10.47046    2.22905
       H     2.85546   13.51724   -1.63701
       O     2.37053   14.37819   -1.55982
      H1     2.11691   14.30260   -0.63663
       H     2.00144   14.45013    5.11220
       O     1.03965   14.41894    5.33187
      H1     0.56463   14.38829    4.48250
       H     1.33443   14.19493   -2.97815
       O     0.83441   14.09996   -3.80696
      H1     0.22639   13.33291   -3.55469
       H     9.36256   19.75541   -1.97742
       O     9.31990   19.64709   -1.02741
      H1     9.26133   18.66190   -1.13155
       H    -0.49037   11.88592   -8.52437
       O    -1.17302   12.06561   -7.82031
      H1    -0.75672   12.90035   -7.43084
       H     3.11314   16.06815   -5.05740
       O     2.52592   15.46415   -5.55679
      H1     1.93183   15.19050   -4.82106
       H    -2.44499   12.58670   -4.84568
       O    -1.97807   12.64649   -4.03742
      H1    -1.89485   11.69176   -3.89668
       H     4.66604   10.47213   -6.20769
       O     5.50966   10.85221   -6.09199
      H1     5.96518   10.20043   -5.58517
       H     2.84875   18.59077    1.48904
       O     2.95219   18.78439    2.44193
      H1     3.89605   18.82696    2.56402
       H     5.89473   17.63326    3.11522
       O     5.73606   18.57407    3.39209
      H1     5.66603   18.41655    4.38262
       H    -0.65599   15.14955   -7.08315
       O    -1.27403   14.52749   -6.69019
      H1    -2.01648   14.54918   -7.27891
       H     5.01351   17.58339   -7.93771
       O     4.85060   18.52575   -7.87575
      H1     3.95129   18.45143   -8.20323
       H     4.66686   12.14660   -3.19199
       O     5.40705   12.38976   -3.68872
      H1     5.17269   12.02873   -4.56683
       H     8.47073   13.95469   -1.57036
       O     9.36248   14.07070   -1.14511
      H1     9.74272   14.70339   -1.85424
       H     9.39552   11.41469   -6.06961
       O     9.42230   12.11267   -5.34425
      H1     8.72398   12.68965   -5.67458
       H     5.37666   16.39883   -1.93714
       O     6.37492   16.28029   -1.95561
      H1     6.54237   16.91463   -2.73158
       H    -1.19532   16.67021   -4.25938
       O    -0.93346   16.01131   -3.55670
      H1    -0.68542   15.28990   -4.14805
       H     4.60956   18.20390   -0.49212
       O     5.51080   18.15570   -0.12041
      H1     6.00831   17.46239   -0.55910
       H     6.42039    9.91176   -1.75323
       O     6.36580    8.99079   -2.05171
      H1     7.09913    8.58364   -1.52006
       H     6.08533   15.85660   -9.28612
       O     6.29496   15.73232   -8.34338
      H1     6.69614   14.86182   -8.15120
       H     8.85221    9.90232   -0.23761
       O     8.08034    9.49459    0.21482
      H1     7.31287   10.05736    0.16559
       H     4.15208    9.52620    0.64697
       O     4.28522    8.81735   -0.04897
      H1     4.74059    9.21323   -0.80088
       H     6.81470   13.53600   -6.47889
       O     7.13515   13.78913   -5.66896
      H1     6.26486   13.75197   -5.20748
       H     6.79675   15.63822    3.02753
       O     6.35167   15.86627    2.22390
      H1     7.09958   16.19450    1.70122
       H     0.75442   16.72352   -3.51406
       O     1.44772   17.45781   -3.42074
      H1     1.55096   18.03386   -4.22700
       H     3.53459   15.67881    5.45872
       O     3.92102   14.76443    5.43955
      H1     4.54697   14.90344    4.69797
       H     3.37638   12.96579   -7.81600
       O     3.89614   13.19419   -8.56221
      H1     3.79721   14.12792   -8.74498
       H    -0.14779   17.10867    4.41383
       O    -0.00848   17.68497    5.14003
      H1    -0.63490   17.31205    5.82049
       H     1.18598    8.42381   -1.77635
       O     1.69104    9.23167   -1.40681
      H1     2.46433    8.84003   -0.92104
       H     6.40745   11.76548   -7.48451
       O     6.36056   12.59463   -7.97099
      H1     5.45125   12.81261   -7.95800
       H     4.79392   18.14594   -4.86595
       O     3.92120   18.08155   -5.30537
      H1     4.21393   18.33458   -6.22051
       H     1.13537   15.24843    1.15392
       O     1.42866   14.31663    1.29075
      H1     2.37234   14.52411    1.42204
       H     0.70438   10.78802   -4.48284
       O     1.10602   11.07046   -3.61666
      H1     1.75418   10.35468   -3.54545
       H     2.90589   13.51210   -5.57689
       O     3.11461   12.55125   -5.72858
      H1     2.49609   12.16422   -4.99711
       H     6.88202   18.44550   -4.94699
       O     6.38414   18.25378   -4.19399
      H1     6.33770   19.13280   -3.79189
       H     2.81048    8.56967   -5.26468
       O     3.08407    8.86515   -4.39223
      H1     2.51492    8.29115   -3.87942
       H     1.59692   17.34817   -8.41097
       O     2.06014   18.05589   -8.97802
      H1     1.88148   17.65179   -9.81633
       H     9.13389   16.53370   -0.65596
       O     9.42803   17.00772   -1.45971
      H1    10.41910   16.99196   -1.43297
       H     0.38110   16.94334    0.15851
       O    -0.09944   16.45547    0.86057
      H1    -0.96136   16.53164    0.47632
       H    -0.23550   11.14875   -6.26050
       O     0.01004   10.29826   -5.86375
      H1    -0.69650   10.09128   -5.26814

