180
frame 4 | Written by MDAnalysis XYZWriter (release 2.4.3)
       H    -7.48290  -15.43663   -1.67503
       O    -6.63761  -15.97595   -1.47775
      H1    -5.81939  -15.38822   -1.36276
       H     2.46142  -18.37776   -1.72426
       O     3.15820  -18.72782   -1.14171
      H1     2.69918  -18.85538   -0.26450
       H     5.41768  -14.28467   -2.41766
       O     4.98387  -13.67684   -3.11374
      H1     5.73691  -13.27021   -3.51812
       H    -1.55162  -18.43291   -0.81501
       O    -1.47621  -18.92114    0.01583
      H1    -2.24445  -19.48890   -0.04083
       H    -2.31183  -14.25809    2.45931
       O    -2.42901  -13.68039    1.68613
      H1    -3.16794  -13.12146    1.97187
       H    -3.25403  -16.43639   -6.24210
       O    -3.70521  -16.27617   -5.41600
      H1    -2.97546  -16.36377   -4.77523
       H     1.31561  -12.16627   -4.64060
       O     1.45956  -12.56807   -3.74658
      H1     0.60301  -12.98391   -3.62028
       H    -6.31199  -11.85079    0.22435
       O    -5.58521  -11.81690   -0.35967
      H1    -5.38137  -10.86866   -0.31696
       H     1.71487  -16.62403   -9.38730
       O     2.21833  -16.88041   -8.58802
      H1     2.06475  -16.11524   -7.90403
       H     0.36649  -16.59782    6.72329
       O     0.49061  -17.52527    6.44582
      H1     0.73595  -17.48397    5.50360
       H    -1.76747  -12.62266   -2.39928
       O    -1.81551  -12.46354   -3.33964
      H1    -2.41153  -11.72717   -3.48706
       H     1.37107  -13.78701    1.10140
       O     1.07033  -14.34340    1.84955
      H1     1.21987  -13.92722    2.64815
       H    -0.92455  -15.26440   -3.10122
       O    -1.51104  -15.48349   -3.86539
      H1    -2.18819  -14.80104   -3.73689
       H    -1.77539  -11.84119    3.98242
       O    -0.82976  -11.92565    3.91485
      H1    -0.62047  -11.03393    4.20277
       H    -4.72151  -17.77751    0.33876
       O    -5.10660  -18.61426   -0.04522
      H1    -5.34904  -18.34306   -0.95795
       H     4.55023  -13.63214   -9.15599
       O     3.71079  -13.38710   -8.79638
      H1     3.86699  -13.36139   -7.86116
       H    -5.32565  -15.21597    2.21799
       O    -6.10169  -14.77973    2.67789
      H1    -5.92820  -15.05918    3.56948
       H     6.71706  -16.51334   -3.13728
       O     7.22086  -15.86472   -3.63772
      H1     6.81943  -15.86653   -4.46893
       H     1.18679  -17.79617   -3.37121
       O     1.70435  -17.09319   -2.91228
      H1     2.06441  -16.55231   -3.58794
       H     3.05362  -15.10370    1.00660
       O     3.63308  -15.83281    0.71935
      H1     3.13966  -16.65891    0.78338
       H     5.97629  -18.40248   -1.69164
       O     5.42698  -17.77132   -2.20791
      H1     4.56137  -17.83306   -1.86227
       H     3.37622  -17.79649    4.94695
       O     2.84809  -17.00125    4.69003
      H1     2.95549  -16.33068    5.35006
       H    -3.69425  -19.45532    2.10484
       O    -3.58827  -18.56189    2.51263
      H1    -2.63423  -18.50204    2.43873
       H     2.05056  -14.01907   -7.82940
       O     1.80313  -14.65469   -7.09197
      H1     0.90983  -14.28269   -6.86270
       H    -0.73072  -12.30000   -5.47405
       O    -0.20870  -12.17836   -6.29121
      H1    -0.21730  -11.18657   -6.23463
       H     3.96912  -11.36525    1.45088
       O     3.66325  -12.13838    1.91324
      H1     4.35578  -12.30033    2.56601
       H     0.82925   -8.39561   -1.92881
       O     1.05901   -8.25629   -2.84453
      H1     1.61245   -9.03854   -3.04706
       H    -6.65614  -18.78930   -3.01789
       O    -5.83796  -18.27053   -2.85494
      H1    -6.21584  -17.40289   -2.60265
       H    -1.44183  -12.99490    0.28900
       O    -1.09560  -12.61804   -0.54467
      H1    -0.50164  -13.29799   -0.85768
       H     4.98040  -15.66611    2.11276
       O     5.32573  -15.68285    3.01424
      H1     4.43297  -15.86471    3.40187
       H    -0.20775  -13.85557    4.31755
       O     0.76140  -13.94142    4.54421
      H1     1.01025  -13.04627    4.42331
       H    -0.06147   -9.01981   -6.66980
       O     0.01199   -9.32383   -5.75882
      H1    -0.28480   -8.48962   -5.34125
       H     0.15297  -18.75303   -9.64041
       O    -0.13491  -18.46744   -8.77337
      H1     0.61873  -17.93500   -8.49220
       H    -4.49560  -13.27674   -1.16395
       O    -4.38709  -14.21057   -1.44822
      H1    -3.49228  -14.44233   -1.18431
       H    -3.91721  -12.27811   -6.97807
       O    -3.12720  -12.68031   -7.44812
      H1    -3.53798  -13.42723   -7.94797
       H     4.01966  -10.44662   -6.20428
       O     3.59140  -11.31402   -5.88408
      H1     3.53182  -11.11256   -4.92897
       H     3.12125  -14.85914   -4.19073
       O     2.95422  -15.57836   -4.80897
      H1     2.67484  -15.10224   -5.58848
       H     5.86266  -12.75097    4.17160
       O     5.78653  -13.05003    3.17792
      H1     5.85938  -14.01820    3.28838
       H    -0.82325  -16.86539    0.57713
       O    -0.63940  -15.95557    0.46582
      H1    -0.02085  -15.80990    1.20349
       H    -5.52231  -10.60895   -5.03599
       O    -4.69207  -10.32441   -5.41217
      H1    -4.93648   -9.52680   -5.89254
       H    -0.16253  -11.40343    0.54548
       O     0.27845  -11.06851    1.36282
      H1    -0.29145  -11.42430    2.03218
       H     1.00345  -15.53038   -2.05432
       O     0.42216  -14.86352   -1.65653
      H1     0.03225  -15.35856   -0.91472
       H    -3.93033  -16.34326    2.14145
       O    -4.11890  -15.87821    1.30940
      H1    -3.32131  -15.26373    1.21413
       H    -4.13121  -19.40845   -5.80842
       O    -4.39187  -19.58816   -6.70201
      H1    -5.15293  -19.03433   -6.73073
       H     4.77578   -8.50309   -2.37138
       O     5.02755   -9.24535   -2.90858
      H1     4.34048   -9.87569   -2.72120
       H    -5.70262  -10.00225   -2.74062
       O    -4.73159   -9.94739   -2.65609
      H1    -4.56810  -10.10169   -3.59403
       H     6.23607   -8.47251    0.98468
       O     6.04391   -9.24472    0.47518
      H1     5.22873   -9.11008   -0.01061
       H    -4.09932  -12.03199    4.65901
       O    -4.02959  -12.78467    4.03945
      H1    -4.85569  -12.79296    3.48976
       H    -1.29894  -15.14954   -6.15867
       O    -1.17111  -14.84649   -7.07276
      H1    -1.88047  -14.21474   -7.05786
       H     6.20586  -10.18420   -3.72966
       O     6.63373  -10.89235   -4.25089
      H1     6.48261  -10.56198   -5.16588
       H     1.94320  -18.06434    1.91479
       O     1.69873  -17.14606    2.16408
      H1     2.16998  -16.91589    2.96848
       H     3.53440  -11.90776   -1.58076
       O     3.04055  -11.15952   -1.92715
      H1     2.46632  -11.66142   -2.53659
       H     5.38447  -16.59312   -6.57667
       O     5.69024  -15.84447   -5.96622
      H1     4.81326  -15.62130   -5.64118
       H    -3.19837  -17.99348   -7.52283
       O    -3.02545  -17.07717   -7.81940
      H1    -2.09521  -17.09169   -7.93568
       H    -1.19288  -16.17077    3.66120
       O    -1.69742  -15.35115    3.82732
      H1    -1.79950  -15.47731    4.78024
       H    -0.20350  -19.00446    3.71284
       O    -0.63935  -18.22129    3.21029
      H1     0.06511  -18.01516    2.58640
       H    -1.37696  -18.18725   -2.98255
       O    -0.71009  -18.75998   -2.61348
      H1    -0.42074  -19.27238   -3.40616
       H     3.32839  -19.66209   -3.09604
       O     3.79584  -19.42881   -3.90346
      H1     4.23387  -18.61081   -3.59951
       H    -5.23984  -15.80501   -4.54487
       O    -6.12215  -15.51466   -4.46212
      H1    -6.19528  -15.31409   -3.52125
       H     0.42876   -9.21101    0.26797
       O     0.38777   -8.34154   -0.15744
      H1    -0.53212   -8.15699   -0.20695

