180
frame 7 | Written by MDAnalysis XYZWriter (release 2.4.3)
       H   -17.48615   -9.85291   16.56411
       O   -16.98434   -9.53814   15.70452
      H1   -16.34600  -10.23211   15.64995
       H   -17.38959  -15.78973    7.26787
       O   -18.04825  -15.76894    6.51673
      H1   -18.37150  -14.86944    6.65923
       H   -16.70593  -16.10599    5.48150
       O   -16.25107  -16.73594    4.89195
      H1   -16.98482  -17.42106    4.79190
       H   -15.20221  -11.68164   10.56987
       O   -14.64103  -11.36433    9.86945
      H1   -13.96488  -10.90735   10.33795
       H   -13.31790  -17.65479    4.49094
       O   -12.79923  -17.47269    5.27743
      H1   -13.26554  -16.69438    5.60582
       H   -11.18451  -14.18112    4.43912
       O   -10.76215  -13.40195    4.84573
      H1    -9.88280  -13.44696    4.42642
       H   -12.20167  -14.45916    6.61219
       O   -12.49553  -15.19275    7.17973
      H1   -13.17018  -14.82108    7.75110
       H   -12.60025  -10.93247   13.17872
       O   -12.92746  -10.31236   12.44497
      H1   -13.79293  -10.24055   12.72220
       H   -15.56703  -15.85566   17.11207
       O   -16.02137  -15.07474   16.83138
      H1   -15.37658  -14.61346   16.26856
       H   -15.10411   -7.35561    4.64969
       O   -15.13944   -6.43110    5.05037
      H1   -15.74337   -6.50799    5.85292
       H   -14.77825  -18.33721    2.55862
       O   -14.33148  -19.03387    3.05545
      H1   -14.86931  -19.03506    3.87668
       H   -16.66211  -13.65184    8.62838
       O   -17.63397  -13.62383    8.64733
      H1   -17.88933  -12.76646    8.20027
       H   -19.48597   -6.68122    7.52922
       O   -19.58947   -7.55454    7.11344
      H1   -19.77117   -7.27159    6.23649
       H   -13.16865  -12.51611    9.78057
       O   -12.39463  -12.86924   10.25997
      H1   -12.82014  -13.41523   10.95914
       H   -17.18493  -10.09530    7.84077
       O   -17.67851  -10.88905    7.58824
      H1   -18.59700  -10.69773    7.59600
       H   -13.15699  -19.21156   14.54636
       O   -13.97976  -19.13918   13.99742
      H1   -13.83279  -18.46083   13.28036
       H   -14.94792  -14.27675    9.43791
       O   -14.93475  -14.43955    8.48096
      H1   -15.12643  -15.41632    8.40095
       H   -11.33901  -16.69616    4.55803
       O   -10.49473  -16.35645    4.19810
      H1   -10.02689  -16.76250    4.98795
       H   -19.46303   -9.28518   11.26782
       O   -19.06382  -10.11060   10.78724
      H1   -19.17155  -10.79878   11.45731
       H   -18.88969  -12.86292   16.41966
       O   -18.70825  -12.93277   15.47035
      H1   -18.58045  -13.88296   15.32860
       H    -9.94280  -14.96431    8.98846
       O   -10.45318  -15.81916    8.99903
      H1   -11.21998  -15.48942    8.50643
       H   -15.56575  -11.04299   13.68202
       O   -15.87555  -11.25538   12.80074
      H1   -16.82372  -11.04527   12.89505
       H   -16.30003  -17.44826    8.54554
       O   -15.88468  -16.83191    7.92153
      H1   -15.92908  -17.23529    7.06564
       H   -16.23569   -9.40732    5.00925
       O   -15.86177   -8.91079    4.23618
      H1   -15.19036   -9.50978    3.94863
       H   -17.11141   -9.40211   10.04678
       O   -16.31447   -9.16846    9.48718
      H1   -15.90416  -10.06796    9.51267
       H   -16.45672   -7.04409    8.25141
       O   -16.13060   -6.43486    7.55581
      H1   -16.17436   -5.52853    7.96867
       H   -10.76113  -17.10751   10.15465
       O   -11.15990  -17.46017   10.98906
      H1   -12.02051  -17.08591   11.06122
       H   -18.39681   -7.42183   13.02835
       O   -17.67534   -6.85805   13.40527
      H1   -16.91038   -7.16944   12.86089
       H   -14.28205  -17.66736   11.18735
       O   -14.19063  -17.27742   12.12077
      H1   -15.10475  -16.97099   12.29195
       H   -16.94893  -14.69957   11.52754
       O   -16.46128  -14.01552   11.07964
      H1   -17.12207  -13.80065   10.36181
       H   -10.82398  -11.72364    1.92732
       O   -11.44168  -12.03948    2.60335
      H1   -10.90125  -12.41722    3.35129
       H   -10.83792  -12.87676   14.14786
       O   -10.55383  -12.19562   13.46974
      H1   -10.60943  -12.72194   12.64584
       H   -13.93261  -15.42152   12.25721
       O   -14.05427  -14.43637   12.31115
      H1   -14.93305  -14.31500   11.98936
       H   -18.00651  -11.25425    1.01298
       O   -17.24854  -10.96898    1.56308
      H1   -17.70789  -11.05317    2.44021
       H   -13.79985   -8.31121    6.11863
       O   -14.20820   -8.30149    6.98764
      H1   -14.52301   -7.34945    7.08626
       H   -13.33364  -14.32998    2.89514
       O   -13.52655  -14.82707    3.66509
      H1   -14.05153  -14.27757    4.21245
       H   -17.57721  -15.90851   15.81542
       O   -18.27908  -15.77003   15.14737
      H1   -18.91856  -16.42369   15.42400
       H   -10.73793   -8.18783   11.49744
       O   -10.39056   -8.83827   12.13955
      H1   -11.12309   -9.44434   12.36409
       H   -12.32870  -11.13694    6.60951
       O   -12.59464  -11.95334    6.15949
      H1   -11.93077  -11.91761    5.48784
       H   -18.25235  -19.23517    6.07163
       O   -18.19009  -18.95010    5.15088
      H1   -19.04335  -18.56981    4.96026
       H    -9.24880  -12.65809    7.50584
       O    -9.19485  -13.59647    7.26935
      H1    -9.74920  -13.66596    6.47463
       H   -14.21340  -12.23373    5.12883
       O   -14.93594  -12.77025    4.70411
      H1   -15.56937  -12.69997    5.46153
       H   -14.03818  -10.32373   15.64846
       O   -14.52832  -11.00772   15.16883
      H1   -14.16414  -11.80545   15.56571
       H   -19.13855   -8.02691    3.61883
       O   -18.39460   -8.24504    3.03161
      H1   -17.78016   -8.61237    3.73315
       H   -19.30643  -17.46500   11.54910
       O   -18.66393  -17.74810   10.84188
      H1   -19.15411  -17.43018   10.03157
       H   -14.45138  -13.96767   14.12985
       O   -14.34906  -13.70787   15.02178
      H1   -13.41543  -13.87998   15.17324
       H   -17.35293  -16.21082   13.50438
       O   -16.79253  -16.19408   12.71251
      H1   -17.35538  -16.69087   12.08038
       H   -18.01566  -12.80088    3.39924
       O   -18.07075  -12.03127    3.91814
      H1   -18.92300  -12.15195    4.28747
       H   -11.67566   -8.97378    5.68347
       O   -12.05557   -8.72290    4.81816
      H1   -12.64391   -9.45102    4.59233
       H   -10.45169  -13.21784   10.75354
       O   -10.03650  -13.73282   11.44583
      H1    -9.13290  -13.44353   11.32000
       H   -18.77154  -10.85000   14.05152
       O   -18.33226  -10.25687   13.46972
      H1   -17.69459   -9.83540   14.08625
       H   -12.81433  -10.75585    2.75673
       O   -13.50913  -10.27542    3.25318
      H1   -13.99080   -9.98106    2.43536
       H   -13.74572  -19.40951    9.47864
       O   -13.63295  -18.44685    9.36625
      H1   -12.69172  -18.35120    9.28219
       H   -11.18115   -8.80969    7.89666
       O   -11.11329   -9.57475    7.34478
      H1   -10.22820   -9.86412    7.61534
       H   -14.54777  -16.66576    2.25117
       O   -15.45491  -16.75756    1.89792
      H1   -15.95754  -16.77893    2.78719
       H   -14.63847  -12.98552    1.12060
       O   -15.62916  -13.06697    0.88522
      H1   -15.88480  -12.27003    1.33211
       H   -16.98643  -13.97049    1.76997
       O   -17.70529  -14.17313    2.39707
      H1   -17.17408  -14.61797    3.10705
       H   -10.67380  -19.54125    6.35008
       O   -10.71888  -18.79296    6.91128
      H1   -11.58922  -18.48210    6.58073
       H   -19.35914  -16.76818    3.68208
       O   -19.59704  -15.91345    4.01772
      H1   -19.23373  -15.86879    4.90309
       H   -15.64773   -6.54872   11.58748
       O   -15.76971   -7.46915   11.80585
      H1   -15.95285   -7.83914   10.90514

