180
frame 6 | Written by MDAnalysis XYZWriter (release 2.4.3)
       H    11.34251   -7.40720    1.56820
       O    11.74802   -7.17734    2.40677
      H1    11.21401   -6.40324    2.69907
       H    16.39493   -5.58143   -4.32222
       O    16.87066   -5.00128   -3.73250
      H1    17.32658   -5.71032   -3.24277
       H    13.84678    2.12689   -0.42641
       O    14.18750    1.46755    0.24164
      H1    15.08120    1.52665   -0.09476
       H    11.26317  -12.95441    0.42122
       O    12.14389  -12.61839    0.72792
      H1    11.86328  -11.91079    1.30152
       H    12.29165   -5.93520   -4.20022
       O    12.32937   -6.17509   -5.18282
      H1    11.45698   -6.53059   -5.31171
       H    17.37334  -10.73876   -1.54432
       O    17.87369  -10.86860   -2.38350
      H1    17.53870  -10.16094   -2.99348
       H    15.78393   -0.90474    4.29210
       O    15.46111   -1.83390    4.47190
      H1    15.85563   -2.30445    3.65730
       H    13.13803  -10.92888   -1.06071
       O    12.39697  -10.46658   -1.50553
      H1    11.65466  -10.86600   -1.00303
       H    12.45143   -6.27966   -2.23458
       O    12.45068   -5.35466   -2.48753
      H1    13.37974   -5.04757   -2.47740
       H    14.74332   -7.37239   -4.59849
       O    14.72633   -8.15102   -4.04373
      H1    14.02014   -7.86698   -3.49211
       H    16.36946    0.63271   -1.61067
       O    15.92962    0.11235   -2.33169
      H1    15.23291    0.70825   -2.60783
       H    11.57774   -7.60845   -1.42876
       O    11.88306   -8.05212   -2.26303
      H1    12.12301   -8.92420   -1.94792
       H    11.86803   -4.44920   -1.04270
       O    11.18475   -4.42299   -0.33469
      H1    11.17482   -3.52057   -0.00877
       H    14.33640   -2.95410    1.81409
       O    14.93669   -2.28270    1.52638
      H1    14.59859   -2.08046    0.64772
       H    11.42093   -0.94982    5.68999
       O    10.56879   -0.61237    5.96215
      H1     9.99065   -0.53599    5.15880
       H    18.71394   -2.92123   -5.43819
       O    18.05022   -3.53329   -5.76665
      H1    17.92814   -4.11322   -4.98045
       H    18.97355   -3.21989   -1.59011
       O    19.31123   -2.32867   -1.32244
      H1    18.83261   -1.70134   -1.92734
       H     7.63368   -5.54657    5.45256
       O     7.44228   -4.80386    4.87272
      H1     8.24202   -4.69633    4.35184
       H    12.42602   -2.80324    5.27643
       O    11.87046   -3.27191    4.64285
      H1    12.56731   -3.80693    4.14150
       H    17.03792   -7.06787   -1.01919
       O    17.02565   -7.63528   -1.77449
      H1    17.83352   -8.15248   -1.69619
       H    19.47167   -9.14400    2.10489
       O    19.10669   -9.10345    1.16267
      H1    18.87823   -8.13027    1.22529
       H    13.04112   -1.58401   -1.52619
       O    13.92935   -1.70286   -1.07411
      H1    14.33529   -0.91336   -1.49074
       H    16.63079   -2.80073    1.03969
       O    17.60233   -2.97384    1.31693
      H1    18.16028   -2.67392    0.51999
       H    13.41722   -9.94711    7.87441
       O    14.18605  -10.39708    8.20450
      H1    14.88746  -10.08092    7.59278
       H    17.84606   -6.13180    0.97958
       O    18.74955   -6.38118    0.79883
      H1    19.25851   -5.90922    1.44003
       H    17.77908   -6.91472    3.75099
       O    18.34848   -7.66650    3.94824
      H1    17.81759   -8.40763    3.76992
       H    15.02553   -7.91235   -1.30905
       O    14.38120   -7.82519   -0.66151
      H1    14.39027   -8.73363   -0.26546
       H     9.41058   -8.62219    5.77816
       O     9.88928   -9.40281    5.46821
      H1    10.69283   -8.96750    5.12621
       H    19.22035  -10.86846    8.83452
       O    18.50433  -11.16088    8.21254
      H1    18.28020  -10.23679    7.95097
       H    11.85334  -10.39240    3.27415
       O    11.75118  -10.47555    2.33078
      H1    10.99205   -9.86582    2.26040
       H    17.06759   -8.33418    7.30601
       O    17.90334   -8.58310    7.73302
      H1    18.47534   -7.85848    7.37437
       H    16.09536   -4.00568   10.67901
       O    16.37966   -4.21979    9.80205
      H1    16.66920   -5.10627    9.89917
       H    15.71666   -7.33313    3.18641
       O    16.00026   -6.41022    3.29483
      H1    15.85407   -6.03694    2.38796
       H    18.27325   -2.76807    3.11082
       O    18.74176   -2.53654    3.92240
      H1    19.11901   -1.65782    3.71279
       H    10.83602   -1.50712    0.95940
       O    10.96404   -2.19423    1.60855
      H1    11.54169   -1.69695    2.24275
       H    12.57690   -7.85136    5.31037
       O    12.18145   -8.50154    4.69878
      H1    12.01832   -7.94159    3.92206
       H    11.87637   -0.75577   -2.89093
       O    11.84134   -1.59747   -2.40788
      H1    12.25727   -2.17776   -3.13442
       H    15.14568   -6.87514    9.07927
       O    14.41065   -6.95435    9.67113
      H1    14.27702   -6.09235   10.13488
       H    15.66592   -4.27978   -2.62156
       O    14.92323   -4.30700   -1.97174
      H1    14.75753   -3.33597   -1.92474
       H    17.61604   -1.36603    5.61167
       O    17.45640   -0.61048    6.20000
      H1    16.69260   -0.83648    6.73765
       H    15.21136   -6.37228    0.23752
       O    15.83363   -5.68800    0.60707
      H1    15.76006   -4.95880    0.01139
       H    16.73508   -9.95174   -4.82785
       O    17.29621   -9.22251   -4.55427
      H1    16.66021   -8.77862   -3.97561
       H    12.54043   -5.86779    7.01070
       O    12.84235   -6.77650    6.79169
      H1    12.21121   -7.27340    7.32238
       H     9.73788   -9.65503   -0.72932
       O     9.84313  -10.48526   -0.27114
      H1     9.07265  -10.93350   -0.64901
       H    17.39731   -0.28198   -2.87072
       O    18.34728   -0.40521   -3.16365
      H1    18.26015   -0.31216   -4.10385
       H    10.85448   -6.09619   -0.10155
       O    10.71569   -7.04711   -0.13385
      H1     9.88149   -7.15183   -0.59828
       H    13.98074   -1.61147    5.43422
       O    13.20571   -1.46726    5.93931
      H1    13.41782   -1.80281    6.82920
       H    12.68210    1.39246    5.15095
       O    13.23585    1.68261    4.40005
      H1    12.86302    1.20061    3.65788
       H    10.37647   -4.67549    7.51546
       O    11.16608   -4.38023    7.08487
      H1    10.88269   -4.24331    6.11490
       H    13.33556  -10.00031    1.67027
       O    14.24987  -10.02130    1.32632
      H1    14.33071  -10.91020    1.01296
       H    18.94313  -12.02760    6.80373
       O    19.14842  -12.45712    5.90316
      H1    18.25609  -12.41618    5.49950
       H    12.86204   -0.28621    1.42283
       O    12.94967   -0.25808    2.35564
      H1    13.86997   -0.47889    2.40955
       H    15.41421   -9.65772    2.68595
       O    15.93813   -9.07323    3.33594
      H1    15.90631   -9.68289    4.06409
       H    14.33308   -5.08032    2.98797
       O    13.61452   -4.45552    2.66223
      H1    13.03870   -5.01929    2.14512
       H    16.74937  -11.88949    0.46117
       O    16.71010  -11.02486    0.05243
      H1    17.49750  -10.67766    0.43218
       H    16.44575  -13.58018    3.69114
       O    16.35423  -12.99358    4.51493
      H1    15.68129  -13.47336    5.00671
       H    15.44321   -7.03262    5.48738
       O    15.51622   -7.42474    6.33514
      H1    14.65751   -7.31051    6.74568
       H    10.52798   -3.88137    3.53673
       O     9.97375   -4.56793    3.11501
      H1     9.90410   -4.21668    2.23416
       H    14.94347    1.24049    4.19338
       O    15.88031    1.07582    4.18879
      H1    16.04729    0.83343    5.10315
       H    14.29755   -3.67388    8.18694
       O    13.68228   -2.89193    8.26480
      H1    14.09226   -2.32558    8.88186

