180
frame 2 | Written by MDAnalysis XYZWriter (release 2.4.3)
       H    15.06220    4.96091    3.68724
       O    14.61563    5.49817    4.35715
      H1    13.96369    4.90500    4.73552
       H    17.00394   -6.25945   -4.28483
       O    17.29967   -6.82119   -3.58205
      H1    18.02555   -6.27114   -3.21260
       H    14.36911    3.44090   -0.65166
       O    15.10523    3.46203    0.01133
      H1    15.67638    2.69246   -0.06673
       H    14.20874   -4.40778   -4.39765
       O    14.03943   -4.81678   -5.24901
      H1    13.28256   -5.41547   -5.08125
       H    13.00364    2.52208   -6.72606
       O    12.81754    1.67041   -6.31899
      H1    13.29726    1.10378   -6.97914
       H    16.36198   -0.07786    3.03977
       O    16.48846   -1.01516    3.35847
      H1    15.70098   -1.47677    3.03685
       H    12.48377   -5.91104   -1.88551
       O    12.44454   -4.92017   -2.06713
      H1    13.37763   -4.71191   -2.24864
       H    15.74589    0.44075   -3.33261
       O    15.12423   -0.32668   -3.09593
      H1    14.22424    0.05275   -3.08725
       H    13.31445    4.78061   -2.30221
       O    13.59392    3.81506   -2.44536
      H1    12.74500    3.36053   -2.59275
       H    13.01211   -7.96851   -0.87296
       O    12.70033   -7.54771   -1.72005
      H1    13.23220   -8.00906   -2.43693
       H    19.02828   -1.41461    0.40020
       O    19.24962   -2.25063   -0.09407
      H1    18.37355   -2.30674   -0.60881
       H    12.53364   -3.69480   -0.31462
       O    12.49357   -3.56192    0.63389
      H1    11.65540   -3.03662    0.60476
       H    14.34989   -3.69161    2.99911
       O    14.28181   -2.81296    2.61651
      H1    13.67797   -2.86250    1.87004
       H    19.16379   -3.72956   -6.19811
       O    18.37212   -4.07534   -6.63841
      H1    17.78599   -3.44892   -6.14678
       H    15.91234    4.01542   -4.73094
       O    15.33558    3.51671   -5.32635
      H1    14.60032    3.55472   -4.68962
       H    17.90215   -3.47084   -1.89672
       O    17.08095   -3.01933   -1.53966
      H1    16.99532   -2.20423   -2.08392
       H    17.54362   -1.03967    6.24050
       O    18.19885   -0.35123    6.42835
      H1    18.61790   -0.53331    7.31993
       H    13.85433   -1.59173   -0.40258
       O    14.61765   -0.96475   -0.39747
      H1    14.62283   -0.78014   -1.32287
       H    10.50679   -6.91460   -1.23367
       O     9.60053   -6.65262   -1.03342
      H1     9.09663   -7.46898   -1.14341
       H    15.74288   -2.97309    1.67133
       O    16.67330   -3.27262    1.45326
      H1    16.86473   -2.99501    0.49614
       H    13.97203    0.69234    0.14391
       O    13.20644    1.30807    0.13286
      H1    13.63464    2.13412    0.31020
       H    18.01260   -0.53442   -6.91181
       O    17.77887   -1.48774   -6.69623
      H1    17.18129   -1.67621   -7.41978
       H    18.39554   -4.58146    0.66331
       O    18.82775   -5.42769    0.68882
      H1    19.58923   -5.26847    1.19664
       H    15.92391    4.10793    1.51685
       O    16.35328    4.55196    2.29406
      H1    17.04158    3.92751    2.43575
       H    10.73979    3.39155   -1.66234
       O    11.05569    3.13142   -2.54749
      H1    10.43532    3.57251   -3.09393
       H    11.97497    4.85492    5.36772
       O    12.18420    4.31083    4.63200
      H1    12.53058    3.48957    5.01526
       H    11.48227    1.45401    0.26146
       O    10.51752    1.39032   -0.01851
      H1    10.19132    2.07582    0.56268
       H    17.09971    5.36794   -2.94301
       O    16.64760    4.56136   -3.16977
      H1    16.00842    4.52031   -2.46125
       H    16.59127    2.20493   -4.27679
       O    16.98472    1.64572   -3.57067
      H1    17.91363    1.35368   -3.83597
       H    18.04918   -1.50133    2.63562
       O    19.01451   -1.49772    2.76216
      H1    19.23851   -0.65859    3.15144
       H    10.00322   -1.56957    0.68586
       O    10.36546   -1.90792    1.49815
      H1    11.02557   -1.20431    1.64327
       H     9.37534   -4.93916   -1.48305
       O     9.65576   -4.00000   -1.60521
      H1    10.55211   -4.25793   -1.97426
       H    11.01176   -5.94816   -4.68747
       O    11.84414   -6.41642   -4.63635
      H1    12.22671   -6.09953   -3.83880
       H    19.25458    2.93140    2.02363
       O    18.44951    2.40182    2.27786
      H1    18.81946    2.16405    3.12129
       H    11.79516   -0.58874   -1.20304
       O    11.97175   -1.53340   -1.28790
      H1    12.28176   -1.49927   -2.23932
       H     7.48575   -1.91752   -0.85311
       O     7.00645   -2.72377   -0.57411
      H1     7.50775   -3.37480   -1.11552
       H     8.22719   -1.38818   -3.55426
       O     8.19153   -2.38309   -3.61723
      H1     8.98809   -2.55265   -3.18121
       H    13.68839   -1.90035   -4.12743
       O    12.89075   -2.29945   -3.74587
      H1    12.31915   -2.42722   -4.53368
       H    11.60584    4.18039    2.54515
       O    11.68369    4.51257    1.63969
      H1    12.31538    5.24743    1.61543
       H    13.52784   -3.57703   -6.37108
       O    13.50977   -2.91355   -7.04040
      H1    13.56182   -3.45947   -7.84281
       H    15.87539   -5.53987   -2.47054
       O    15.26256   -4.79000   -2.54339
      H1    15.76919   -4.10501   -2.15729
       H    19.88482   -4.62233   -2.37143
       O    18.97882   -4.88649   -2.04267
      H1    19.13110   -5.19702   -1.14760
       H    15.83151   -0.96059    5.00058
       O    15.51691   -1.10975    5.95479
      H1    15.37154   -0.23036    6.31035
       H    12.57987    1.19237   -4.58425
       O    12.36657    0.70132   -3.75901
      H1    11.81112    1.36891   -3.39328
       H    16.96124   -7.41348    2.58893
       O    17.39591   -6.70950    3.11864
      H1    18.02587   -6.25923    2.47832
       H    19.21630    1.58280   -7.28690
       O    18.37797    1.29945   -6.87498
      H1    18.70304    1.10437   -5.91555
       H    15.69513   -1.55577   -4.11812
       O    16.19897   -2.18778   -4.62564
      H1    16.62425   -1.73945   -5.31125
       H    11.45384   -4.96914    1.00991
       O    10.93669   -5.69559    1.38874
      H1    10.57255   -6.06324    0.54687
       H    12.17740   -3.19846    3.49993
       O    11.66251   -2.62371    4.05415
      H1    12.33387   -2.60333    4.81566
       H     8.24579   -1.46189    4.67487
       O     8.66544   -0.95561    3.94065
      H1     9.24750   -1.62968    3.51284
       H     8.78299    0.87293   -2.89966
       O     8.31958    0.76851   -3.78464
      H1     8.82652    1.41479   -4.31226
       H     7.78338    0.01111    0.39169
       O     8.16582   -0.24655   -0.47738
      H1     9.09878   -0.13752   -0.39541
       H    12.74974    1.43533    5.39438
       O    13.34894    1.66987    4.63340
      H1    12.92677    1.26484    3.84785
       H    17.96686    3.98156   -2.27544
       O    18.61502    3.68128   -1.64437
      H1    18.91964    4.45499   -1.16904
       H    13.08227    0.17470    1.63312
       O    12.66907   -0.10380    2.46839
      H1    13.32695   -0.78731    2.71097
       H    15.78111   -5.60621    2.91742
       O    14.84579   -5.39066    3.13154
      H1    14.32759   -5.72908    2.33118
       H    10.32864   -5.17033    2.95345
       O    10.16601   -5.34874    3.93351
      H1    10.99345   -4.99597    4.35289
       H    15.13510    1.69056    4.26507
       O    15.96185    1.76410    3.79628
      H1    16.57559    1.93469    4.47451
       H    14.39741   -2.51938    6.19543
       O    13.78176   -3.25916    6.03676
      H1    13.50511   -3.43726    6.92097
       H    18.11110    2.02129    0.49034
       O    17.76491    1.61095   -0.34720
      H1    17.90314    2.25491   -1.04932

