180
frame 10 | Written by MDAnalysis XYZWriter (release 2.4.3)
       H     7.57017  -16.06448    4.35907
       O     7.92086  -15.34640    4.85037
      H1     8.84317  -15.64274    4.91549
       H     0.13640   -4.21601    6.31792
       O     0.41094   -5.09089    6.53402
      H1     1.04775   -4.99714    7.22565
       H     4.08710  -10.48956   10.78920
       O     3.54675  -11.24832   10.97588
      H1     3.88538  -11.84408   10.29298
       H     6.12218  -12.80335    1.89452
       O     6.66095  -12.24526    1.40226
      H1     7.09108  -11.65727    2.04121
       H     9.14389   -8.87058    8.55533
       O     9.21289   -8.01370    8.13288
      H1     8.71392   -7.61724    8.91712
       H     0.99284   -9.88205   14.33066
       O     0.47324   -9.18246   13.94054
      H1     0.23520   -9.61692   13.05893
       H     1.95237  -14.41200    8.07264
       O     2.24022  -13.46860    7.98427
      H1     1.71423  -13.25453    7.15739
       H    -1.57287  -10.71698    6.86538
       O    -1.79088  -10.36838    5.97007
      H1    -1.63571   -9.41717    6.04146
       H     4.01780  -13.23776    8.45725
       O     4.84437  -12.85040    8.78343
      H1     4.91212  -11.92064    8.54068
       H     9.15051  -11.06614    4.29285
       O     8.56622  -11.50161    3.64323
      H1     7.62704  -11.35188    3.90584
       H     1.52328   -9.73370    8.16329
       O     1.44117   -8.81109    7.87185
      H1     0.52476   -8.47611    8.12683
       H     7.76844  -10.69612   10.06285
       O     7.91488  -10.44269    9.15647
      H1     8.43258  -11.15650    8.76274
       H     1.46308   -8.34439    5.88024
       O     1.10199   -8.21397    4.97257
      H1     1.77010   -8.65594    4.40654
       H    11.43407   -9.35313    9.18665
       O    11.80993  -10.11439    8.64378
      H1    12.45808  -10.57659    9.19184
       H    -0.40655   -5.93641    8.29041
       O    -0.62132   -6.87377    8.55600
      H1    -1.06399   -6.65217    9.42244
       H     4.99460   -9.43081    6.95443
       O     5.07471   -9.10646    6.02090
      H1     5.25622   -9.90862    5.45281
       H     3.04193   -8.15081    8.84481
       O     3.69921   -8.04420    9.57302
      H1     4.17379   -7.20639    9.33804
       H     6.76875  -13.86126   13.82570
       O     7.06396  -13.57614   13.01134
      H1     7.20875  -14.31254   12.45991
       H     4.45041   -8.64410   12.33736
       O     5.22969   -9.19958   12.30822
      H1     5.94084   -8.52122   12.40851
       H     5.21142   -7.74202    1.53302
       O     5.65924   -8.30317    2.19838
      H1     5.08131   -8.13265    3.01316
       H    10.22421   -5.76801   11.35344
       O     9.51178   -6.30874   11.67801
      H1     9.94913   -7.18728   11.63790
       H     0.23460  -10.31180   11.20596
       O    -0.58727  -10.01330   11.60136
      H1    -0.81044   -9.13586   11.28178
       H     0.54429  -11.77147    9.11673
       O     1.14657  -11.08775    9.35077
      H1     2.00819  -11.54062    9.45222
       H     9.65561   -8.77330    5.97301
       O     9.93286   -9.58152    5.53195
      H1    10.72417   -9.21674    5.03987
       H     8.00485  -10.76152   12.64988
       O     7.70632  -10.40302   11.84501
      H1     6.78731  -10.25656   11.97628
       H     7.54712  -13.81896    6.06787
       O     7.80862  -12.89403    6.09859
      H1     8.22657  -12.75417    5.27509
       H     2.65340  -13.82296   13.46865
       O     2.90720  -13.30195   14.25754
      H1     2.48334  -13.79696   14.98035
       H     3.17400   -6.92687   13.92193
       O     3.01867   -7.47664   13.11067
      H1     2.29915   -8.04404   13.38695
       H     0.68607  -11.91149    5.16813
       O     0.77379  -12.46354    5.93225
      H1     0.09308  -12.14174    6.50924
       H     6.30100  -12.01921    5.25551
       O     5.89770  -11.46154    4.56721
      H1     5.29270  -12.10684    4.14809
       H     4.51204  -10.48476   13.69969
       O     3.89568  -10.74624   14.43139
      H1     3.72410  -11.68369   14.23324
       H     9.69508  -12.14617    6.73106
       O    10.64832  -12.22234    6.88164
      H1    10.91395  -11.34596    7.17232
       H     2.50880   -5.19201    9.41634
       O     2.15865   -5.33959    8.47893
      H1     3.00600   -5.55817    8.03741
       H     5.53580  -15.07629   10.01308
       O     5.69532  -14.95908   10.95977
      H1     5.73757  -13.94619   11.09283
       H     9.19870  -15.38241   11.01193
       O     9.28333  -14.76206   11.71915
      H1     8.78662  -15.11704   12.45250
       H     3.89675  -14.97587   11.10794
       O     2.95077  -15.13429   11.39274
      H1     2.62316  -15.63056   10.67072
       H     5.34543  -14.75220    3.14290
       O     5.29635  -13.77449    3.10147
      H1     4.36074  -13.71902    3.01249
       H     2.25082   -6.28998   12.05523
       O     1.71160   -5.80445   11.42360
      H1     1.72326   -6.39425   10.64228
       H     8.65949  -12.09245   14.92109
       O     8.74800  -11.80098   13.98765
      H1     8.24154  -12.44555   13.48492
       H     7.79059   -6.07375    9.18088
       O     7.58182   -6.74422    9.86252
      H1     8.08075   -6.55854   10.67603
       H    11.05475   -9.57841   12.07716
       O    10.43865   -9.42352   11.29823
      H1     9.63595   -9.88448   11.48177
       H     7.90313   -4.27732    7.57513
       O     8.11042   -5.19762    7.25246
      H1     9.06186   -5.07601    7.14102
       H     5.52214   -4.81342    6.50487
       O     4.83048   -4.88258    7.19593
      H1     4.73056   -3.95003    7.52016
       H     1.15091  -16.81218    6.11461
       O     1.99318  -16.37019    6.31476
      H1     2.33208  -16.89012    7.05336
       H    -0.63283  -10.70699    4.38543
       O    -0.07111  -10.59193    3.60385
      H1     0.37115   -9.72996    3.87066
       H    11.40759   -6.38581    6.49109
       O    11.74650   -7.23784    6.80920
      H1    10.93403   -7.64801    7.28280
       H     3.94090   -7.12583    4.96231
       O     3.85911   -7.46924    4.02214
      H1     3.19191   -6.81596    3.77558
       H     9.12854  -13.52558    9.31941
       O     9.50974  -12.61758    9.28689
      H1     9.96282  -12.52825    8.43233
       H    -2.39877  -11.95565    8.68530
       O    -1.58673  -12.01985    8.16981
      H1    -1.35380  -12.95436    8.30927
       H    13.12478  -10.51731   11.01031
       O    12.65774  -11.34703   10.71512
      H1    11.82034  -10.92857   10.57423
       H     6.62108   -5.38863   13.31471
       O     6.21161   -4.51476   13.26946
      H1     5.72067   -4.52082   12.44768
       H     4.12756   -9.95141    2.21727
       O     3.48160  -10.65059    2.15984
      H1     3.77529  -11.13628    1.34007
       H     7.15573   -6.25522    4.14513
       O     6.84023   -5.78469    3.29027
      H1     6.44895   -6.59244    2.97513
       H     6.76189   -8.05860    5.77145
       O     7.35754   -7.27621    5.80571
      H1     7.86467   -7.50085    6.63747
       H     5.73037  -15.70875    7.63416
       O     6.17554  -15.03525    8.16848
      H1     5.64220  -14.21928    8.03172
       H     6.11379   -3.89486    9.84491
       O     6.72702   -3.53434    9.21227
      H1     7.14245   -2.79966    9.78955
       H     6.00202   -6.14963   10.14432
       O     5.24792   -5.59036   10.41748
      H1     4.81499   -6.25933   10.96429
       H     8.20965   -7.09504   13.56435
       O     7.23560   -7.07173   13.42926
      H1     7.02770   -7.59318   14.27266
       H    -0.33492   -6.81049   11.52897
       O    -1.14100   -7.32111   11.32612
      H1    -1.52195   -7.63019   12.15278
       H     4.88198   -9.59196    9.06219
       O     5.06329  -10.33211    8.51664
      H1     5.96105  -10.39522    8.68085

