180
frame 6 | Written by MDAnalysis XYZWriter (release 2.4.3)
       H    -9.56410  -17.79632   14.24059
       O    -9.79245  -18.15580   15.10069
      H1    -8.97851  -18.61088   15.36867
       H    -8.21233  -10.73013    7.57648
       O    -9.13113  -10.75472    7.93941
      H1    -9.04209  -10.99266    8.86103
       H    -7.67599  -11.44594   10.87513
       O    -8.53404  -11.03298   10.60926
      H1    -9.08810  -11.12610   11.41842
       H   -14.43631  -10.47575   10.47433
       O   -14.27875  -10.23852    9.55792
      H1   -13.82592   -9.41419    9.70206
       H    -7.72605  -11.45130   15.11952
       O    -6.98759  -11.02644   15.57207
      H1    -6.32436  -10.97184   14.82901
       H    -7.49910  -12.83253    2.94669
       O    -8.02410  -13.60924    2.73983
      H1    -7.43982  -14.31279    3.02664
       H    -4.77554  -15.34932    9.58002
       O    -5.48173  -15.96809    9.73282
      H1    -6.20634  -15.72668    9.09785
       H   -13.26390  -17.67413    5.04045
       O   -13.38441  -17.40608    5.96623
      H1   -13.32524  -16.46540    5.89260
       H    -7.65958  -10.58550    2.82856
       O    -6.83484  -11.01940    3.03804
      H1    -6.84788  -11.02405    4.01414
       H   -10.52764  -14.38153    4.52091
       O   -10.02280  -13.52884    4.50039
      H1    -9.33213  -13.73920    3.83823
       H    -5.82492  -12.51189   11.14257
       O    -6.54288  -13.15001   11.36141
      H1    -6.49537  -13.74334   10.55990
       H   -11.61933  -14.04774    7.14668
       O   -12.11539  -14.85130    7.23809
      H1   -12.97017  -14.49621    7.53860
       H   -12.64555  -10.96575   13.01479
       O   -13.20578  -10.12304   12.99813
      H1   -14.00357  -10.49247   13.41382
       H    -5.91607  -14.26544   12.85593
       O    -5.49175  -14.75939   13.54645
      H1    -5.35829  -14.21496   14.30364
       H    -7.66295  -17.40510   12.05765
       O    -8.54984  -17.27087   12.49608
      H1    -9.17630  -17.59707   11.89890
       H    -2.62497  -17.42361   11.21826
       O    -2.56871  -16.83361   10.46627
      H1    -2.77931  -17.44140    9.69367
       H    -5.56325  -16.25475    2.77164
       O    -6.27029  -15.96123    3.39605
      H1    -5.85738  -16.21438    4.24788
       H    -3.30579  -17.89125    7.17969
       O    -3.79717  -18.06482    8.00490
      H1    -4.29091  -17.27470    8.20984
       H   -12.31239  -11.85867    9.89579
       O   -11.71934  -12.53855   10.23673
      H1   -12.18708  -13.38324   10.05712
       H   -13.33539  -19.26880   13.78902
       O   -14.26320  -19.04794   14.00411
      H1   -14.29756  -18.26493   13.43525
       H   -14.83243  -14.56439    9.13551
       O   -14.73557  -14.54745    8.18086
      H1   -14.70350  -15.52826    8.01344
       H    -3.81252  -12.75686    7.72402
       O    -4.48120  -12.77881    7.02983
      H1    -5.14747  -13.25245    7.55462
       H   -12.14495  -15.77414    4.20704
       O   -11.20290  -15.88431    4.53912
      H1   -11.31564  -15.58428    5.46252
       H    -2.50008  -14.54171    8.98640
       O    -2.78744  -13.61903    9.07566
      H1    -2.24686  -13.27418    9.85361
       H   -10.18856  -14.93005    9.71897
       O   -10.80766  -15.62210    9.44555
      H1   -11.13143  -15.43094    8.55201
       H    -6.59010  -19.09144    5.23622
       O    -6.63405  -18.36743    5.82427
      H1    -6.63754  -18.80963    6.68748
       H    -7.54359  -13.81428    8.27620
       O    -6.72222  -13.49148    8.62348
      H1    -6.70133  -12.60588    8.23766
       H   -15.16094  -17.37299    8.75268
       O   -15.26418  -17.19636    7.83708
      H1   -14.64385  -17.77631    7.39814
       H   -11.06721  -17.12333   10.89038
       O   -11.59372  -17.76719   11.41174
      H1   -12.09343  -17.20579   12.00083
       H    -7.86879  -15.57008   13.89586
       O    -8.30678  -14.75493   13.85454
      H1    -8.73999  -14.78747   13.01540
       H   -14.40775  -17.53757   11.50938
       O   -14.32709  -16.92445   12.24638
      H1   -15.25651  -16.65371   12.32480
       H   -10.73939  -10.93465    2.29179
       O   -11.09847  -11.46602    3.04571
      H1   -10.47612  -12.15121    3.30382
       H   -11.43729  -12.86539   13.39817
       O   -11.40243  -12.03693   12.91341
      H1   -11.81401  -12.35070   12.09299
       H    -4.50038  -15.94410    6.12207
       O    -5.41750  -15.86163    6.28929
      H1    -5.79575  -16.75647    6.28975
       H   -14.06820  -15.14161   11.65330
       O   -13.79770  -14.18966   11.54389
      H1   -14.56936  -13.72676   11.17646
       H    -7.68715  -18.18125    8.79884
       O    -7.64533  -19.05101    8.38440
      H1    -7.25876  -19.61818    9.11563
       H    -9.72729  -16.35973    2.89799
       O    -9.10975  -16.79431    2.31490
      H1    -8.26776  -16.61166    2.65517
       H   -11.46211  -13.74269   15.35590
       O   -11.48721  -14.52036   14.69202
      H1   -10.83931  -15.17290   15.16089
       H   -13.56601  -15.16287    2.73799
       O   -13.89652  -15.56833    3.59177
      H1   -14.37605  -14.79330    3.90440
       H    -2.54516  -14.98652   14.31147
       O    -2.67878  -14.87831   13.36695
      H1    -3.48237  -14.41231   13.35524
       H    -8.99768  -15.92063    9.06673
       O    -8.23022  -16.21780    8.60201
      H1    -8.65817  -16.30390    7.70766
       H   -12.24382  -11.45899    6.18110
       O   -12.47353  -12.18088    5.57251
      H1   -11.60669  -12.34945    5.15533
       H    -9.13713  -12.69366    7.42311
       O    -9.29356  -13.61270    7.20752
      H1    -9.15120  -13.62139    6.24748
       H   -14.70450  -12.98207    5.45127
       O   -15.39015  -13.62276    5.14162
      H1   -15.99547  -13.00199    4.62213
       H    -3.51819  -14.09873    5.91371
       O    -3.28202  -14.53800    5.09914
      H1    -4.14233  -14.38582    4.61451
       H    -9.26189  -14.83841   15.69186
       O    -9.62586  -15.54342   16.28414
      H1    -9.52126  -16.25576   15.65464
       H   -13.99029  -14.02426   13.18092
       O   -13.98678  -14.05735   14.19171
      H1   -12.99606  -14.28659   14.36528
       H    -9.65959  -12.04346   13.24972
       O    -8.73452  -11.95469   13.47598
      H1    -8.62165  -12.85216   13.81437
       H   -10.61453  -19.34241    0.89245
       O   -10.85812  -18.85554    1.66559
      H1    -9.99820  -18.39664    1.87893
       H    -5.97210  -11.47167    5.92145
       O    -6.65199  -10.79715    5.85122
      H1    -6.28804   -9.97392    6.16324
       H    -9.67220  -13.29931   10.66237
       O    -9.09943  -14.08342   10.84147
      H1    -8.41492  -13.58941   11.28343
       H   -14.08905  -19.20186   10.12226
       O   -14.08677  -18.26838   10.06816
      H1   -13.18011  -18.04026   10.38200
       H    -6.55403  -17.04380   14.20710
       O    -6.95277  -17.20722   15.05865
      H1    -6.30812  -17.90602   15.34430
       H    -4.50411  -12.00665    4.06421
       O    -4.74902  -12.69877    3.43912
      H1    -5.41328  -12.20752    2.89646
       H    -6.24395  -18.54076   11.48747
       O    -5.94298  -17.71564   11.87718
      H1    -5.92922  -17.21142   11.00372
       H   -12.08356   -9.09145    7.29565
       O   -11.69535   -9.84388    6.81308
      H1   -10.82216   -9.89577    7.30150
       H    -8.44718  -17.67286    6.34318
       O    -9.13885  -17.01618    6.22530
      H1    -9.87600  -17.56296    6.67275
       H    -3.23856  -17.36986   13.40287
       O    -3.47239  -18.20140   12.98239
      H1    -4.17738  -17.97704   12.39963
       H   -11.49592  -19.04820    7.67978
       O   -11.15527  -18.86770    6.81276
      H1   -12.00719  -18.48898    6.45507
       H    -4.79262  -10.07747   10.51526
       O    -4.81201  -11.02644   10.87158
      H1    -3.84396  -11.22087   10.74844

