180
frame 12 | Written by MDAnalysis XYZWriter (release 2.4.3)
       H    -1.81919   16.38827   -1.68091
       O    -2.40658   16.60758   -0.95102
      H1    -1.93632   17.11044   -0.25473
       H    -3.40442   10.37646   -2.12352
       O    -3.56779    9.72262   -2.80514
      H1    -3.16959   10.23142   -3.53272
       H    -5.53648    2.95206   -4.36681
       O    -5.51811    3.90234   -4.19883
      H1    -5.10798    4.32794   -4.93580
       H    -1.30259   10.83556   -9.66854
       O    -1.96619   11.48199   -9.42798
      H1    -1.56741   11.80352   -8.65370
       H    -3.75881   15.42252   -4.87403
       O    -2.91839   15.04475   -5.18222
      H1    -2.83200   14.42441   -4.42818
       H    -4.87123    8.90035    0.48052
       O    -4.39035    8.14887    0.02093
      H1    -4.45520    7.42306    0.59549
       H    -1.37814    4.09204   -4.33845
       O    -0.57373    3.51921   -4.61631
      H1     0.04552    4.25689   -4.37293
       H    -0.60797    9.20787    0.59396
       O     0.21383    9.57546    1.04822
      H1     0.34878   10.37980    0.53463
       H    -0.30730    7.76884   -7.91942
       O    -0.52614    7.05087   -7.26364
      H1    -0.60151    7.51851   -6.42507
       H    -2.89580    5.08173   -2.79491
       O    -2.47228    5.17893   -3.65747
      H1    -3.19520    5.47797   -4.23679
       H    -4.97308   11.38464   -6.22311
       O    -4.20788   11.98125   -6.12526
      H1    -4.66761   12.84522   -6.21677
       H     1.03153   15.06742   -2.25573
       O     1.87681   15.48878   -2.25032
      H1     1.75173   16.16793   -2.99014
       H    -5.45429   16.78546   -5.18939
       O    -5.31909   15.99087   -4.56654
      H1    -5.87993   15.35481   -5.03354
       H    -5.14247    5.31891   -1.61443
       O    -4.66831    4.46090   -1.70071
      H1    -4.84078    4.09288   -2.60374
       H     0.69189    6.09957   -3.53299
       O     1.12208    5.47323   -4.15289
      H1     1.67870    4.90894   -3.58646
       H     1.43189    8.78109   -9.22204
       O     0.47457    9.04835   -9.16026
      H1     0.03832    8.49143   -9.82626
       H    -2.79949   11.30652    1.51524
       O    -3.32821   11.08337    2.28972
      H1    -2.69274   10.82533    2.94252
       H     3.12858   12.19507   -1.25459
       O     2.62423   12.12786   -2.09241
      H1     2.42112   11.12592   -2.12694
       H    -3.93164   13.98297    2.07754
       O    -4.70145   14.55938    1.74005
      H1    -5.47763   14.03777    2.01471
       H    -9.88045    9.96868   -7.58110
       O    -9.49673   10.07314   -6.66602
      H1    -9.39337    9.13947   -6.46308
       H    -7.69122    7.74640   -6.76668
       O    -6.77675    8.06314   -6.88107
      H1    -6.45736    7.36022   -7.48099
       H    -6.61942    6.54821   -1.22794
       O    -5.96988    6.74291   -1.98799
      H1    -5.29229    7.22526   -1.53677
       H    -1.74522   16.23281   -4.48564
       O    -1.28757   16.94307   -3.99931
      H1    -0.36381   16.91468   -4.36697
       H    -8.95477   11.12142    1.15149
       O    -8.22024   11.27592    0.52920
      H1    -7.40539   10.98432    0.96125
       H    -5.31579   10.72856    1.84686
       O    -5.70937   10.13028    1.25372
      H1    -6.28477    9.57342    1.82449
       H    -7.10027    9.11975   -1.72785
       O    -7.90663    9.13494   -1.19578
      H1    -7.77818    9.83617   -0.54752
       H    -3.97799   13.76083   -2.51697
       O    -3.13739   13.51180   -2.85705
      H1    -2.50943   14.09537   -2.45088
       H     1.86976   14.43967   -8.49866
       O     1.30298   13.75597   -8.84391
      H1     0.80017   13.56844   -8.06998
       H    -1.48717    8.23156   -1.56500
       O    -1.82563    8.70287   -0.74737
      H1    -2.69741    8.35429   -0.57585
       H     1.07042   12.31339   -0.77121
       O     0.25605   12.39584   -0.24637
      H1     0.49805   12.87026    0.58946
       H    -4.27564   12.56988   -0.69644
       O    -4.77968   13.38152   -0.78333
      H1    -4.62026   13.78759    0.06612
       H    -0.46315   13.57314   -1.56218
       O    -0.54126   14.24600   -2.21458
      H1    -0.26354   13.82354   -3.07344
       H     0.13635   10.84407   -7.85679
       O    -0.07188   11.68206   -7.40942
      H1     0.76519   11.77453   -6.87994
       H     3.30946   12.18293   -5.11590
       O     2.56470   11.70611   -5.57869
      H1     1.88724   12.02630   -5.00418
       H     0.17855   13.71169   -5.31683
       O     0.18749   13.14295   -4.46972
      H1    -0.55092   12.60042   -4.74507
       H    -2.74796   15.27668   -8.31806
       O    -2.39961   14.55606   -7.77233
      H1    -2.98135   14.76523   -6.96299
       H    -7.64856   12.45360   -4.20904
       O    -6.82731   12.60341   -3.76989
      H1    -6.67882   11.85363   -3.19175
       H    -6.23784   13.92475   -8.11098
       O    -5.68635   14.18691   -8.91126
      H1    -4.81544   13.82718   -8.59697
       H    -7.42679   14.23216   -6.28251
       O    -6.46579   14.00225   -6.18747
      H1    -6.41727   13.57080   -5.28391
       H    -8.28834   14.10277   -1.39535
       O    -8.78840   14.27003   -2.20026
      H1    -8.47491   13.53119   -2.77913
       H    -0.92028    8.28732   -3.52233
       O    -0.83809    7.60491   -2.84554
      H1    -1.48414    6.97072   -3.15749
       H    -5.23360    5.86262   -8.44551
       O    -6.09625    6.13302   -8.71216
      H1    -5.98097    6.27210   -9.68453
       H    -2.48180   10.32249   -0.50517
       O    -2.55717   11.30172   -0.47108
      H1    -1.69097   11.66754   -0.68870
       H    -3.51308   10.36734   -9.00095
       O    -4.11816    9.56526   -8.93206
      H1    -4.99463    9.95823   -8.81468
       H    -5.09798    9.57812   -3.18356
       O    -6.12645    9.59919   -3.15222
      H1    -6.28713    9.19170   -4.04723
       H    -9.17328   11.00043   -5.13563
       O    -9.37898   11.73642   -4.52773
      H1    -9.71952   11.19127   -3.73395
       H    -9.57716    6.16347   -1.19087
       O    -8.72415    6.23221   -0.68823
      H1    -8.73397    7.17896   -0.57015
       H    -2.31911   12.10780   -4.12583
       O    -1.85813   11.47289   -4.70371
      H1    -2.57062   11.63607   -5.39133
       H    -2.33927    7.53058   -7.39523
       O    -3.28287    7.59704   -7.17546
      H1    -3.49932    8.34035   -7.76546
       H    -2.74098   12.60359    3.01593
       O    -2.33700   13.47733    3.21575
      H1    -1.38261   13.35487    3.28029
       H    -3.92316    4.01321   -6.88176
       O    -4.33664    4.86286   -6.60600
      H1    -3.62224    5.45910   -6.76591
       H     1.70903    7.91874   -0.09929
       O     2.13197    7.85329   -0.94712
      H1     3.02536    8.03930   -0.67290
       H    -7.62935   13.08716    0.19093
       O    -7.23712   13.92321    0.06882
      H1    -6.29258   13.67785   -0.11120
       H    -8.99205    6.78589   -3.24061
       O    -8.41818    6.23391   -3.85344
      H1    -7.52915    6.31625   -3.38133
       H    -7.02146    9.74407   -7.87683
       O    -6.73059   10.58122   -8.39919
      H1    -7.51157   11.13103   -8.54733
       H     0.27736   16.09856   -7.30044
       O     0.00947   15.45117   -6.65916
      H1    -0.68908   15.03820   -7.19501
       H   -10.75363   10.50655   -1.68359
       O   -10.16453   10.15927   -2.33556
      H1    -9.31596    9.94573   -1.81235
       H     2.06106    8.79960   -2.35019
       O     2.06046    9.56625   -3.00866
      H1     2.67534    9.30276   -3.66258
       H     1.68206    7.21707   -6.50664
       O     2.27096    8.00021   -6.47479
      H1     1.69007    8.78532   -6.45118
       H    -0.60666   10.20800   -5.27695
       O     0.00110    9.45317   -5.21377
      H1     0.58165    9.65220   -4.45667

