180
frame 148 | Written by MDAnalysis XYZWriter (release 2.4.3)
       H     0.77482   -9.16099   16.12543
       O     0.90014   -9.05638   17.07760
      H1     1.86917   -8.85846   17.19984
       H    -3.50318   -4.89622   14.99438
       O    -2.77023   -4.58785   15.57586
      H1    -3.28341   -4.14178   16.27568
       H     4.01584  -10.91301   11.41526
       O     3.26932  -10.47999   11.84498
      H1     3.15552   -9.65289   11.35392
       H     4.94586   -9.09959   14.19982
       O     4.72849  -10.07875   14.10767
      H1     3.98515  -10.13102   13.45504
       H    -6.08469   -4.52251   17.42701
       O    -6.12680   -5.47858   17.13958
      H1    -5.45646   -5.91258   17.73530
       H    -1.90809  -13.22297   19.71707
       O    -2.02559  -13.54203   18.83183
      H1    -2.92544  -13.83202   18.74021
       H     3.27482   -3.52306   13.45701
       O     2.95620   -4.21599   12.86445
      H1     3.83501   -4.67959   12.77109
       H    -0.53766   -0.71564   14.04702
       O     0.04033   -1.32971   13.60532
      H1    -0.42790   -2.16176   13.62928
       H    -4.16702   -9.75181   10.94014
       O    -3.46940   -9.90438   10.30703
      H1    -3.30949  -10.86858   10.27570
       H     1.86360   -1.82246   14.35653
       O     2.82420   -1.86620   14.62741
      H1     2.89707   -0.87210   14.71964
       H    -0.17246   -4.75301   15.11215
       O    -0.32271   -4.04011   14.49770
      H1    -0.99603   -4.35879   13.89414
       H     0.06249   -2.55899   18.48866
       O     0.58599   -3.08348   19.13695
      H1     1.47762   -2.73240   18.93022
       H    -2.38403   -7.53293    8.48426
       O    -2.06216   -7.37590    9.40199
      H1    -2.62060   -7.89294    9.98837
       H    -3.25192   -2.17107   17.73945
       O    -3.35873   -3.06987   18.01906
      H1    -2.56180   -3.16235   18.51932
       H    -0.63701   -1.51302   16.02204
       O    -0.36001   -2.14184   16.69889
      H1     0.04972   -2.79923   16.11049
       H     5.54976   -4.79744   14.59778
       O     5.16703   -4.07647   15.14184
      H1     6.04553   -3.61214   15.25330
       H    -3.59674  -12.13042   18.27031
       O    -4.31095  -11.76776   17.73372
      H1    -4.73162  -11.28156   18.47760
       H     0.60051   -6.83693   15.53292
       O    -0.05859   -6.33591   16.06837
      H1     0.36765   -6.29933   16.91893
       H    -7.02190   -2.48366   16.54714
       O    -6.21389   -2.62600   17.02754
      H1    -6.41581   -2.23338   17.87998
       H    -5.70490   -3.01628   12.16265
       O    -6.43916   -3.46429   12.63441
      H1    -7.11870   -3.73769   11.97864
       H    -0.60253   -6.08939    9.51399
       O    -0.26799   -5.18715    9.70912
      H1    -1.13001   -4.71427    9.71480
       H     3.85073  -10.20950   17.98120
       O     3.69489   -9.60743   17.21259
      H1     4.26209   -9.91313   16.48378
       H     0.31344   -9.36935   18.88811
       O     0.34735   -9.36098   19.89250
      H1    -0.39821   -8.72720   20.09026
       H    -4.70217   -9.57988   13.24128
       O    -5.16952  -10.03368   12.54245
      H1    -5.86718   -9.40197   12.29246
       H     2.96711   -7.63209    9.63040
       O     2.15511   -7.89364   10.05815
      H1     1.72901   -8.47741    9.38052
       H     0.70230  -12.73814   14.53766
       O     0.05432  -12.44879   15.16160
      H1    -0.26463  -13.29918   15.48916
       H    -2.47362  -14.18346   10.74863
       O    -2.73298  -13.72381   11.58684
      H1    -2.27841  -12.90316   11.61125
       H     0.43875  -14.10251   18.25732
       O     1.25065  -13.71434   17.81665
      H1     0.92413  -13.28501   16.97529
       H     5.93999   -7.56274   17.28100
       O     5.21021   -7.63642   17.96091
      H1     4.67751   -8.29688   17.46329
       H     1.25369   -8.45564   14.03569
       O     1.78179   -7.69307   14.34260
      H1     1.59545   -7.05583   13.64458
       H    -0.35359  -10.73351   14.48672
       O     0.06130   -9.94037   14.02730
      H1    -0.63103   -9.26283   14.24593
       H     2.50171   -3.43764   11.38895
       O     2.24025   -2.61741   10.88448
      H1     2.69233   -2.75560   10.03591
       H     0.08047   -4.84231   18.86022
       O     0.04043   -5.80938   18.87087
      H1     0.84175   -6.08072   19.35072
       H    -3.95814   -2.72426   10.80377
       O    -4.23741   -2.18446   11.58594
      H1    -4.75776   -1.46689   11.23326
       H    -2.08212   -7.62554   14.20480
       O    -1.72832   -8.13330   14.99450
      H1    -1.23185   -7.37207   15.32373
       H     2.17483  -13.53391   12.33675
       O     1.46778  -12.97245   12.66652
      H1     1.67479  -12.06407   12.42093
       H    -3.02986   -2.25458   13.67580
       O    -2.55653   -1.98839   14.50226
      H1    -2.51258   -2.86958   14.91545
       H    -7.09581   -6.42912   14.78941
       O    -8.01023   -6.75716   14.57063
      H1    -7.92456   -6.85473   13.59524
       H    -5.77413   -4.73482   13.79776
       O    -5.31409   -5.49950   14.21533
      H1    -5.72224   -5.41280   15.08006
       H    -2.77516   -6.61344   12.22072
       O    -3.38982   -7.29653   12.58833
      H1    -4.10016   -6.79040   13.05023
       H     3.22101   -3.55485   17.69553
       O     2.94063   -2.58654   17.70840
      H1     2.75123   -2.39722   16.75782
       H    -4.02168   -1.21685   14.97020
       O    -4.87084   -0.82926   15.29062
      H1    -5.14675   -1.53263   15.88412
       H    -2.55193   -3.49855    9.07928
       O    -2.99995   -4.00580    9.77019
      H1    -3.62047   -4.59416    9.22778
       H    -7.46769   -7.26072   11.29671
       O    -7.28808   -7.88975   12.01114
      H1    -8.06727   -8.41352   12.20726
       H    -0.60377   -9.76895    9.26248
       O     0.20406   -9.73031    8.73467
      H1    -0.15350  -10.10308    7.95996
       H     2.68643   -5.43311    9.53438
       O     3.62014   -5.38982    9.83258
      H1     4.10967   -5.57511    9.02940
       H    -8.11729  -10.82923   15.85396
       O    -7.26721  -11.23616   16.11385
      H1    -6.87653  -11.38167   15.21128
       H    -5.66314  -11.43893   13.33811
       O    -6.05035  -12.20661   13.73558
      H1    -5.28211  -12.68640   13.95637
       H    -0.99281   -5.40451   11.82306
       O    -1.76483   -4.94129   12.23286
      H1    -2.12156   -4.51524   11.44449
       H     4.55449  -13.20177   15.28694
       O     4.09979  -12.90986   14.46715
      H1     4.11034  -11.97496   14.65810
       H    -0.67884  -10.42914   12.56859
       O    -1.00254  -10.45217   11.64801
      H1    -1.90197  -10.09808   11.74307
       H    -3.03789  -12.97256   15.30273
       O    -3.43617  -13.72418   14.76487
      H1    -3.26643  -13.44305   13.85146
       H    -3.86020  -10.28238   16.21590
       O    -3.59253  -10.11100   15.29190
      H1    -2.81268   -9.50638   15.35904
       H     4.53373   -6.96146   15.63272
       O     4.36401   -7.04075   14.70352
      H1     3.40522   -7.29056   14.72420
       H     1.26079  -11.38511    8.99336
       O     1.42100  -12.06235    9.63406
      H1     1.58510  -11.56079   10.49158
       H     0.12805    0.44645   17.69593
       O     0.94169    0.02852   17.99984
      H1     0.78650   -0.90995   17.79139
       H    -7.21721   -8.47905   17.82013
       O    -6.36490   -8.78876   17.44740
      H1    -6.69321   -9.49717   16.88974
       H     3.89488   -5.00387   16.76326
       O     3.13015   -5.29474   17.27497
      H1     3.63686   -5.89691   17.92417
       H    -3.48098   -7.44414   16.36690
       O    -2.95974   -7.01260   17.15933
      H1    -2.60518   -6.24427   16.63433
       H     1.16236   -6.58138   11.26444
       O     0.94638   -6.22839   12.23364
      H1     1.49989   -5.47177   12.28275

