180
frame 12 | Written by MDAnalysis XYZWriter (release 2.4.3)
       H   -12.06372   -3.09653   -3.49743
       O   -12.18021   -2.68836   -2.67115
      H1   -12.81775   -1.95298   -2.93715
       H   -15.03801   -6.44436    2.47919
       O   -15.62155   -5.75943    2.91042
      H1   -16.52957   -6.11173    2.72759
       H   -10.06981   -2.25648    1.26667
       O    -9.43771   -1.75365    0.71134
      H1    -8.59815   -2.25645    0.90960
       H    -8.94828    2.71019   -0.97953
       O    -9.36497    2.40594   -0.15503
      H1    -8.55568    2.10705    0.35507
       H   -12.75966    3.31829    2.64388
       O   -13.60455    3.76297    2.90826
      H1   -13.48324    4.61099    2.41837
       H   -12.86761    4.04494   -1.71625
       O   -12.79235    3.86361   -0.74666
      H1   -13.68218    3.74843   -0.48629
       H   -10.35579   -2.63975    7.37066
       O   -11.29683   -2.68524    7.62048
      H1   -11.47469   -1.74967    7.87075
       H   -10.82055    0.54063   -2.01075
       O   -11.45612    1.22185   -1.74934
      H1   -10.85566    1.88677   -1.40082
       H   -12.72056    5.40375    5.54931
       O   -13.23774    4.55793    5.66546
      H1   -13.38657    4.32935    4.69753
       H   -14.79475   -2.38879   -1.13172
       O   -15.22338   -3.28799   -1.22549
      H1   -15.21755   -3.64835   -0.32940
       H   -12.84176   -3.02590    1.75849
       O   -11.78443   -2.94159    1.75543
      H1   -11.50192   -3.72662    2.29625
       H   -15.54586   -5.11136    4.59467
       O   -15.36240   -4.38052    5.19015
      H1   -15.71311   -4.82232    6.00115
       H   -12.39363    1.70763    6.10914
       O   -11.79026    2.42352    6.30713
      H1   -12.38738    3.16670    6.10289
       H   -13.08925   -0.35816   -4.96207
       O   -13.41772   -0.60206   -5.84794
      H1   -12.60946   -0.92406   -6.25055
       H   -10.73264   -6.32263    6.39782
       O   -11.69014   -6.56168    6.47267
      H1   -11.96373   -5.77129    5.91605
       H   -12.04280   -0.13600    3.17909
       O   -11.69799   -0.74705    3.84200
      H1   -12.12343   -1.56286    3.67105
       H   -11.79289    0.57866   -0.13682
       O   -11.71035    0.04852    0.69993
      H1   -10.98494   -0.57229    0.46451
       H   -20.18461   -4.17683   -0.41115
       O   -19.30161   -4.56415   -0.64726
      H1   -18.68732   -3.92901   -0.28674
       H    -8.65518    2.84895    4.10246
       O    -9.49367    3.30428    4.33199
      H1    -9.84857    2.87020    5.11182
       H    -9.78925   -0.66860    3.48112
       O    -8.85412   -0.73730    3.39621
      H1    -8.85360   -1.39320    2.71114
       H   -15.88605   -0.73197    0.94112
       O   -16.76429   -0.94032    0.56754
      H1   -17.00599   -1.79747    0.99470
       H   -15.11175   -4.28078    1.98798
       O   -14.55301   -3.61016    1.61175
      H1   -14.63872   -2.90355    2.32470
       H   -12.69524   -0.48188    5.53804
       O   -12.94546   -0.14888    6.43605
      H1   -13.52112   -0.91522    6.77285
       H   -13.59079   -0.53877    1.11009
       O   -14.34966   -0.69974    1.67732
      H1   -14.31289    0.09782    2.20982
       H   -14.92435    3.30420    1.64752
       O   -15.28479    3.13644    0.73827
      H1   -16.14393    3.51496    0.72091
       H   -14.86587    4.98266    8.23818
       O   -15.52951    4.25836    8.26562
      H1   -16.26833    4.57631    8.79278
       H   -18.26455    3.43470    1.53249
       O   -17.95665    4.28335    1.27904
      H1   -18.53035    4.88609    1.78861
       H   -10.89503    0.42512    8.82228
       O    -9.97844    0.79652    8.66597
      H1    -9.76236    0.89834    9.61762
       H   -10.74368    2.00720    1.63693
       O   -11.39201    2.42932    2.28553
      H1   -10.76679    2.61640    3.02755
       H   -18.63064   -2.47088    1.37516
       O   -17.98430   -3.18286    1.45443
      H1   -18.07090   -3.39710    2.39545
       H   -17.84780    0.50360    0.88409
       O   -18.32268    1.31623    1.04270
      H1   -18.32366    1.30701    2.02701
       H   -14.92711    2.12380   -0.71696
       O   -14.60405    1.95389   -1.60054
      H1   -13.76368    2.42230   -1.63623
       H   -16.56283    6.71900    1.09774
       O   -15.92705    6.86130    1.84000
      H1   -15.06682    6.59331    1.45119
       H   -18.87712    1.88106    4.22411
       O   -17.95576    1.92838    3.91841
      H1   -17.61257    1.05702    4.16396
       H    -9.77709    5.05580    0.58154
       O   -10.16829    4.99016    1.44780
      H1   -10.35307    4.08016    1.58719
       H   -12.20637   -3.72012    6.24828
       O   -12.44901   -4.28227    5.43615
      H1   -13.45038   -4.02915    5.28359
       H   -17.40564    5.31463    4.49115
       O   -17.47998    6.07726    3.91317
      H1   -16.77771    6.06708    3.19836
       H   -14.96580    1.18247    4.19345
       O   -14.30520    1.28316    3.51717
      H1   -14.12742    2.20977    3.32268
       H   -15.10283   -6.24982   -0.92589
       O   -14.65478   -6.00716   -1.72488
      H1   -14.44831   -5.04821   -1.55228
       H   -11.67876   -5.89961    2.84114
       O   -10.95003   -5.24951    2.89862
      H1   -11.06332   -4.89961    3.80319
       H   -18.23378   -5.51560    3.89451
       O   -18.20563   -6.02634    3.11001
      H1   -18.32660   -6.92649    3.48013
       H   -15.42078    2.80549   -3.09527
       O   -15.86174    3.53490   -3.68382
      H1   -16.58854    3.83243   -3.08889
       H   -15.53623    2.29162    7.56888
       O   -15.65516    1.62311    6.86557
      H1   -14.93679    1.09713    7.13680
       H   -14.49984   -0.12553   -2.51807
       O   -14.19712   -0.84915   -3.08126
      H1   -14.91895   -1.43567   -3.29418
       H   -15.24642   -0.47303   10.66244
       O   -14.97490   -0.01903    9.87583
      H1   -15.17377   -0.63490    9.12152
       H   -17.16439    1.01854   -4.40626
       O   -17.16003    1.17170   -5.35550
      H1   -16.44523    1.86020   -5.26535
       H   -12.53645    4.87303    8.41749
       O   -12.21449    4.01785    8.70520
      H1   -12.06119    3.58680    7.86791
       H   -12.02557   -3.94161   -1.36263
       O   -11.90029   -4.66807   -0.72244
      H1   -11.95524   -4.12567    0.06678
       H    -7.61047   -1.05308    4.99677
       O    -6.91634   -1.11064    5.67434
      H1    -6.72800   -0.13995    5.75261
       H   -18.63049   -1.43125   -3.85436
       O   -18.89005   -1.45491   -2.90211
      H1   -18.10316   -1.80519   -2.46837
       H   -18.43418   -3.48230    4.62080
       O   -17.66150   -3.55874    4.00323
      H1   -16.85803   -3.86196    4.50330
       H    -7.02027    0.82031    1.16460
       O    -7.65990    1.22754    1.77685
      H1    -8.15819    0.46362    2.04468
       H   -15.08819   -2.70658    7.69729
       O   -14.97390   -1.77807    7.49649
      H1   -15.58564   -1.62446    6.77798
       H   -12.34314    6.23230    1.18376
       O   -13.13348    5.73768    1.02286
      H1   -12.79826    5.03012    0.42777
       H   -15.66944   -2.56444   -4.58699
       O   -16.11395   -2.41272   -3.72182
      H1   -15.77379   -3.11150   -3.11258
       H    -9.46108   -1.62282   -1.23290
       O    -9.82227   -1.20945   -2.06271
      H1   -10.51720   -1.83595   -2.29284
       H   -13.06616    3.99549   -3.65847
       O   -13.46910    4.65791   -3.09285
      H1   -14.44097    4.53590   -3.19539
       H   -16.78825    0.90545   -1.87358
       O   -17.36089    0.95384   -2.62732
      H1   -17.85880    0.09001   -2.62451
       H   -16.60930    3.85553    6.51475
       O   -17.30911    4.19132    5.95140
      H1   -17.39818    3.40196    5.34368
       H   -17.61295   -0.74148    5.22200
       O   -16.68558   -0.41938    5.06258
      H1   -16.56082    0.13930    5.81792

