180
frame 12 | Written by MDAnalysis XYZWriter (release 2.4.3)
       H     4.78270   -8.58864    9.47232
       O     5.38027   -8.46936   10.21332
      H1     6.03496   -9.21387   10.19045
       H     8.49456  -15.97023   13.54364
       O     7.80094  -15.95846   12.87811
      H1     6.95512  -16.31012   13.28397
       H     8.11948  -17.20234   16.08593
       O     8.90227  -16.78559   15.61008
      H1     9.14968  -16.05309   16.20987
       H     8.90987  -12.50886   12.01922
       O     9.86318  -12.67612   12.23885
      H1     9.75577  -13.06652   13.11697
       H     7.10179  -11.35161   10.55817
       O     7.08694  -10.95188    9.61995
      H1     8.01376  -11.02488    9.25939
       H     8.02491   -8.54974   19.28390
       O     8.06799   -9.51992   19.18642
      H1     8.96743   -9.67012   18.87962
       H     8.03250  -14.14612   17.12296
       O     8.52746  -14.70445   17.72450
      H1     9.24464  -14.11828   18.05780
       H    12.32493  -13.57323   15.82016
       O    11.52092  -13.40826   16.32170
      H1    10.80450  -13.65659   15.67906
       H     0.86065  -11.37518   11.32900
       O     0.53122  -12.27940   11.26507
      H1     0.35164  -12.47951   12.19705
       H     5.75943  -14.20601   19.06456
       O     6.46020  -14.85451   19.21690
      H1     7.21262  -14.65730   18.53515
       H    11.83394  -11.69790   15.46706
       O    12.25698  -10.82949   15.38254
      H1    12.56037  -10.61418   14.49242
       H     2.21132   -6.17789   15.05447
       O     2.85205   -6.40322   15.73581
      H1     3.68183   -6.19789   15.21362
       H     4.40843  -14.16143   10.74757
       O     5.17081  -14.42263   11.25893
      H1     5.17921  -15.37167   11.08037
       H     9.19719   -8.45730   13.66799
       O     9.35839   -7.70163   13.09932
      H1     9.14912   -7.93306   12.19971
       H    10.96047  -10.34114   16.91249
       O    10.29680  -10.30875   17.61709
      H1    10.44493  -11.12534   18.10126
       H     0.77250   -7.24999   12.91291
       O     1.65957   -6.89208   13.01675
      H1     1.72678   -6.12715   12.39318
       H    10.74945   -8.72065   18.22475
       O    10.99136   -7.88032   18.67726
      H1    11.24381   -8.24758   19.52324
       H     0.41985  -14.12620   18.69372
       O     0.37775  -13.11805   18.75287
      H1     1.19682  -13.01635   18.29900
       H    10.53440  -12.90546   19.67675
       O    10.28742  -12.81361   18.76409
      H1    10.92621  -13.26484   18.19977
       H     6.13376  -12.12627    8.67660
       O     5.46273  -12.78608    8.44288
      H1     5.95867  -13.64348    8.35723
       H    -0.91365   -8.55988   13.38411
       O    -0.86423   -7.82420   12.84998
      H1    -1.26404   -8.06271   11.96950
       H     8.38398  -15.05807   11.32685
       O     8.85280  -14.85666   10.50233
      H1     9.36413  -14.05797   10.79006
       H    -0.57880  -11.02421   13.90364
       O    -0.72278  -10.18476   14.43081
      H1    -0.04576  -10.33180   15.12064
       H     6.21982   -6.73321   10.07029
       O     6.62036   -5.91661   10.35397
      H1     6.91955   -5.55139    9.49685
       H     0.50573   -8.05739   16.54823
       O    -0.24091   -7.99444   17.13246
      H1    -1.03821   -7.82515   16.56293
       H     1.63183  -11.22265   16.58585
       O     1.18258  -10.37885   16.27584
      H1     0.97284   -9.88389   17.07921
       H     6.11701  -11.95184   18.68520
       O     6.45949  -11.51045   17.94678
      H1     7.10059  -10.89775   18.18118
       H    11.89720  -12.03245   12.45507
       O    12.62314  -11.41608   12.37729
      H1    13.10338  -11.72971   11.55244
       H     5.35142  -10.97844   14.69968
       O     5.81584  -11.17115   13.85422
      H1     5.28758  -10.84853   13.15623
       H     8.46534  -13.06439   15.17962
       O     9.34223  -12.87548   14.90485
      H1     9.36118  -11.91803   14.76064
       H    10.01830  -10.87251   11.69334
       O    10.18216  -10.17009   11.01028
      H1    11.09644   -9.95777   11.14995
       H     1.60670   -8.90564   12.42140
       O     1.66731   -9.56114   11.63265
      H1     2.63922   -9.76376   11.59938
       H     4.11923  -10.16599   15.88011
       O     4.39619  -11.03150   16.25846
      H1     5.23506  -10.87767   16.77593
       H     6.70079  -12.34022   12.67744
       O     7.22164  -12.51390   11.88638
      H1     6.75694  -13.30907   11.51847
       H     1.74162   -6.14605   19.28988
       O     2.20517   -6.77880   18.77447
      H1     3.17199   -6.69622   18.97952
       H     4.63075   -8.56082   19.46507
       O     4.63547   -8.60249   18.47107
      H1     3.81185   -9.02686   18.13374
       H     3.92338  -14.01958   19.98320
       O     4.08605  -13.35002   19.33051
      H1     3.36978  -13.38776   18.69430
       H     2.08290   -8.42439   18.93003
       O     1.86830   -9.35551   18.75922
      H1     2.10507   -9.82385   19.54437
       H     7.45983   -4.85805   14.27286
       O     7.65779   -3.97951   13.94416
      H1     8.35990   -3.57066   14.49434
       H     6.83182  -16.57921   18.33100
       O     6.52318  -17.31912   17.81889
      H1     5.59387  -17.13643   17.66154
       H    -0.08072  -13.69497   13.94009
       O    -0.61255  -12.91704   13.71773
      H1    -1.45874  -13.32168   13.45761
       H     5.35668   -3.55428   12.14981
       O     4.86851   -4.31863   11.78634
      H1     5.56685   -4.77570   11.26944
       H     1.02596   -8.83770   10.02500
       O     0.57180   -8.61035    9.17986
      H1    -0.20461   -8.13680    9.47932
       H     4.75324   -6.06564   12.76990
       O     4.70034   -6.75138   13.45882
      H1     3.98301   -7.29944   13.13507
       H     4.06820   -5.19093   16.90873
       O     4.71187   -4.58306   17.26542
      H1     5.48183   -5.14337   17.49480
       H     4.59090   -9.67996   11.32228
       O     4.22909  -10.42812   11.80082
      H1     3.94092  -11.13883   11.26965
       H     2.29950  -13.89970   13.79266
       O     1.67841  -14.30690   14.46518
      H1     1.85936  -15.23424   14.39963
       H     4.54597  -12.64202   13.52847
       O     3.97591  -13.37869   13.53209
      H1     4.32144  -13.86346   12.77047
       H     6.25835   -8.57971   17.25963
       O     6.75593   -9.06316   16.59984
      H1     7.03043   -8.36308   16.00477
       H     6.47176  -12.66614   16.51192
       O     6.69214  -13.42322   15.94941
      H1     6.03672  -14.04515   16.13684
       H     8.54192  -10.23736   15.45042
       O     8.64118  -10.02380   14.51303
      H1     7.73012  -10.21937   14.16821
       H     3.92005  -15.15823   16.70126
       O     4.52176  -15.12454   15.97845
      H1     4.15395  -14.47011   15.38989
       H     6.49777   -6.99597   14.12755
       O     7.30130   -7.02715   14.66211
      H1     8.06776   -7.24121   14.06249
       H     2.23744  -17.51178   13.33273
       O     1.99821  -17.22535   14.23168
      H1     1.08368  -17.56026   14.30029
       H     2.39175  -12.66237   10.35405
       O     3.36364  -12.54552   10.39085
      H1     3.73990  -12.67123    9.51837
       H     7.28984   -6.22772   16.79071
       O     7.16313   -5.81834   17.63303
      H1     7.62495   -4.91703   17.62359
       H     5.01620  -16.37948   14.80215
       O     5.29787  -17.03949   14.17847
      H1     4.60239  -17.09518   13.49388
       H     2.40871   -9.71419   15.26052
       O     3.07522   -9.08404   14.94790
      H1     2.98124   -8.23646   15.41130
       H     2.34525  -13.46191   15.95817
       O     2.48824  -12.82061   16.62881
      H1     3.29821  -12.33651   16.44321
       H     9.97164  -10.33859    9.18113
       O     9.57472  -10.52568    8.29515
      H1    10.08016  -11.29110    7.97689

