180
frame 3 | Written by MDAnalysis XYZWriter (release 2.4.3)
       H    -5.67756   -8.19898    7.33727
       O    -6.03515   -7.94303    6.46035
      H1    -6.92329   -8.40474    6.47351
       H    -4.38811    4.90455    9.84946
       O    -4.46554    4.64600   10.75189
      H1    -4.80606    3.74668   10.76555
       H    -7.12910    0.62957   11.79823
       O    -6.56815    0.00409   11.37448
      H1    -6.41189   -0.62655   12.10799
       H    -6.71377   -8.68536    9.62387
       O    -7.62567   -8.48487    9.83512
      H1    -8.08472   -9.28023   10.03426
       H    -2.54310   -2.31812   11.82249
       O    -3.39330   -1.83106   11.70078
      H1    -3.27309   -0.92690   11.47147
       H    -8.23887   -4.73764    6.53130
       O    -8.20776   -3.90433    6.00513
      H1    -7.84779   -4.15154    5.11398
       H   -10.66404   -2.88920   15.99691
       O   -10.46858   -3.18630   16.88008
      H1   -10.87955   -4.05192   16.78354
       H    -5.48095   -6.57584   12.59178
       O    -5.77763   -5.70695   12.25953
      H1    -6.49408   -6.02091   11.72745
       H   -11.81618   -4.68946    9.29518
       O   -11.51437   -5.60856    9.47261
      H1   -10.58147   -5.58112    9.22740
       H    -8.01663   -3.67526   13.32384
       O    -7.29321   -4.00075   13.97484
      H1    -6.99278   -4.82474   13.44835
       H    -0.70755   -0.77831   13.17020
       O    -0.93416   -0.50844   12.24113
      H1    -1.66363    0.13128   12.45850
       H    -8.20959    2.33668   10.26920
       O    -8.44022    2.31295   11.21317
      H1    -9.19506    1.65269   11.35029
       H     1.52455   -4.19770    8.56677
       O     0.87581   -3.47751    8.88338
      H1     0.97093   -2.76438    8.18991
       H    -9.25261   -4.48343   12.47696
       O    -9.23460   -3.58222   12.08871
      H1    -8.50601   -3.56305   11.45154
       H    -2.29109   -6.66262    9.79133
       O    -2.62079   -7.50992   10.01578
      H1    -2.33091   -8.11047    9.29112
       H    -5.23558   -6.17921    5.69805
       O    -4.76317   -5.34190    5.62642
      H1    -5.24037   -4.86143    4.93128
       H    -9.80864   -3.17024    6.43543
       O   -10.58411   -2.70605    6.79277
      H1   -11.24038   -2.51005    6.13185
       H    -7.27555   -8.59583   15.78586
       O    -6.65613   -7.91504   15.54464
      H1    -6.73340   -7.60774   14.62986
       H    -0.77951   -4.37739   12.74380
       O    -1.75143   -4.10301   12.80810
      H1    -1.77747   -3.83423   13.72494
       H    -6.16960   -0.44423    4.86617
       O    -5.63306   -1.20157    5.07926
      H1    -6.09915   -1.52493    5.83817
       H    -4.29625   -8.65483   12.76264
       O    -5.11037   -8.48454   12.17906
      H1    -4.87380   -8.41013   11.18775
       H    -3.04134   -7.17755   12.21382
       O    -2.66635   -6.78935   13.01902
      H1    -2.54632   -5.81660   12.77776
       H    -7.49073    3.86049    8.98102
       O    -7.33994    2.93937    8.63106
      H1    -6.37348    2.75272    8.73783
       H   -12.28193   -0.76535    8.15005
       O   -12.83730   -0.02819    7.81382
      H1   -12.15464    0.61425    7.59837
       H     0.68474   -1.29734   11.31409
       O     1.53862   -1.51654   10.96918
      H1     1.51735   -2.26927   10.31786
       H    -8.32207   -0.34045   18.28084
       O    -7.87916    0.07500   17.54720
      H1    -7.08084   -0.39512   17.31028
       H    -4.87097   -1.93961   12.84393
       O    -5.75010   -1.85106   13.21156
      H1    -6.15492   -2.73629   13.32185
       H    -6.69144   -2.69391    9.64203
       O    -6.68358   -3.45391   10.22512
      H1    -6.04466   -3.19107   10.86358
       H    -8.02886   -7.71974   11.41150
       O    -8.09747   -7.29268   12.30779
      H1    -9.03030   -7.17478   12.47750
       H    -8.48345   -0.07790    5.57745
       O    -8.63920   -0.24270    4.62035
      H1    -8.30422    0.56043    4.12766
       H    -5.44231    2.05076   14.84653
       O    -4.61124    1.63374   15.19823
      H1    -4.30508    2.29883   15.80506
       H    -4.66058   -7.52757    9.04198
       O    -5.22853   -8.27846    8.93002
      H1    -4.72503   -9.07516    9.11159
       H    -4.79740    1.81949    5.68992
       O    -5.33663    1.74406    4.87858
      H1    -4.69931    2.12585    4.27298
       H   -12.49576   -3.88655   14.11099
       O   -11.86587   -3.21633   14.39141
      H1   -11.49693   -2.75618   13.66575
       H    -1.10075   -4.44751    9.24765
       O    -1.88048   -4.95400    8.96040
      H1    -2.64330   -4.35713    9.10207
       H    -3.85485   -0.86018    4.53040
       O    -2.90463   -0.70143    4.35668
      H1    -2.44806   -1.47035    4.64250
       H    -6.46963   -4.28727    3.12478
       O    -6.46337   -3.92006    4.03440
      H1    -6.18210   -2.99929    3.99789
       H    -4.64287   -9.70772   14.86612
       O    -3.89458   -9.12857   14.55046
      H1    -4.12094   -8.28038   14.99888
       H     0.81382   -5.91467   12.47268
       O     0.80857   -5.01628   12.83955
      H1     1.52131   -5.17028   13.49512
       H    -2.49169   -4.64038    5.62234
       O    -1.61462   -4.91130    6.06974
      H1    -1.85371   -4.74109    7.02458
       H    -3.23480   -5.01039   15.65642
       O    -2.62496   -4.24898   15.69621
      H1    -2.98219   -3.71205   16.43021
       H    -9.09534   -1.55757   15.68793
       O    -9.50454   -1.24103   14.91832
      H1    -9.57273   -0.30845   14.92579
       H   -11.17999   -7.13837   13.32116
       O   -10.76062   -6.33082   13.03617
      H1   -11.23038   -5.61599   13.48505
       H    -9.18708    0.41204    7.81431
       O    -8.68193   -0.38054    7.52741
      H1    -9.28418   -1.09382    7.36274
       H    -9.31392   -9.39621   12.62400
       O   -10.02162   -9.21770   13.24257
      H1   -10.78896   -9.53718   12.69541
       H     0.10653   -7.63675   10.50576
       O     0.62201   -6.87287   10.36858
      H1     0.31829   -6.52927    9.55604
       H    -8.03253   -4.83965   15.57927
       O    -7.86621   -5.41501   16.28759
      H1    -7.22054   -6.10991   16.02954
       H   -10.05087    1.97981   15.04607
       O    -9.19715    1.54364   15.19684
      H1    -9.18527    1.22884   16.14467
       H    -5.64093   -1.73653   15.74394
       O    -5.56008   -1.00621   16.36213
      H1    -5.16630   -0.27544   15.88885
       H    -5.19950   -3.75705    8.55747
       O    -4.35460   -3.90760    8.08755
      H1    -4.55148   -4.50685    7.31664
       H   -10.47036   -2.46235   11.70177
       O   -11.19045   -1.81732   11.62096
      H1   -10.78610   -0.99174   11.82820
       H   -11.16306    0.95436   11.53141
       O   -10.46970    0.69840   12.13187
      H1   -10.77659    0.85154   13.01819
       H    -2.59723   -1.93229   18.28476
       O    -3.47046   -2.37035   18.12449
      H1    -3.90517   -1.73913   17.56144
       H    -2.51603    2.05502   13.23771
       O    -2.85801    1.27459   12.70711
      H1    -3.36886    0.81308   13.31539
       H    -7.27880   -0.73781    8.40756
       O    -6.51171   -0.98280    8.96832
      H1    -6.59742   -0.37027    9.77553
       H    -8.31688   -6.42041    8.30821
       O    -9.01457   -5.78594    8.09196
      H1    -9.51585   -6.15745    7.34331
       H    -3.72463    1.91107   11.18310
       O    -4.61924    1.94495   10.64245
      H1    -5.08715    1.14836   10.96364
       H    -5.45640   -6.71762   16.36613
       O    -4.60406   -6.22194   16.35815
      H1    -4.23718   -6.28804   17.21540
       H    -5.31244    0.49865    8.02195
       O    -4.90992    1.35065    7.77622
      H1    -4.27566    1.46685    8.48178
       H   -11.35556   -2.20964    9.95100
       O   -11.80551   -2.70331    9.23166
      H1   -11.21211   -2.97962    8.49576

