180
frame 5 | Written by MDAnalysis XYZWriter (release 2.4.3)
       H     8.30022  -17.76147  -10.34303
       O     7.32210  -17.66060  -10.57188
      H1     7.32626  -18.05275  -11.42128
       H    -5.78188  -13.56152  -13.51867
       O    -5.94725  -13.59449  -12.53666
      H1    -5.96373  -14.60461  -12.43233
       H    -3.68105  -15.95077   -5.85530
       O    -4.01008  -15.94330   -4.93125
      H1    -3.62333  -15.14549   -4.57359
       H     0.72320  -13.03807   -4.84394
       O     1.40716  -12.99516   -4.11161
      H1     0.95456  -13.57174   -3.47528
       H    -1.11337  -12.51928   -8.45791
       O    -1.29648  -12.51730   -9.41534
      H1    -2.22719  -12.93031   -9.43771
       H    -1.77587  -12.03081  -15.82285
       O    -2.52394  -11.63456  -15.29061
      H1    -2.42859  -12.23506  -14.50939
       H     1.06823  -16.31904  -10.24205
       O     1.38225  -16.58929   -9.39903
      H1     1.18638  -15.80189   -8.85848
       H     5.87625  -18.24882  -15.40037
       O     5.45024  -18.41666  -14.53815
      H1     6.27509  -18.25746  -14.04068
       H     3.23338  -16.79770   -9.12542
       O     4.03206  -17.02222   -8.71723
      H1     4.50499  -17.52823   -9.36918
       H     3.72894  -19.25218   -6.94291
       O     3.83914  -18.38622   -6.52131
      H1     3.85216  -17.88984   -7.38004
       H    -2.03308  -14.91638  -14.30149
       O    -1.84094  -15.56785  -15.04778
      H1    -1.10584  -16.04022  -14.65457
       H     3.32445  -15.02743  -13.51326
       O     3.17764  -15.67504  -12.86154
      H1     4.04606  -16.08665  -12.81596
       H    -1.79225  -10.92721   -7.61711
       O    -2.03870  -10.07281   -7.94331
      H1    -2.72637   -9.77675   -7.31634
       H     3.18381  -13.63282  -12.28017
       O     3.13779  -12.89225  -12.88525
      H1     2.53790  -13.34520  -13.52293
       H    -0.16986  -13.50322  -16.78182
       O    -0.31397  -13.65287  -15.79387
      H1    -0.68346  -14.52009  -15.72459
       H     8.16746  -15.32904   -7.75985
       O     8.84229  -16.03902   -7.59707
      H1     9.31072  -15.68995   -6.77840
       H    -1.71611  -14.41139   -3.64613
       O    -2.15633  -14.04051   -4.41976
      H1    -2.37624  -13.11119   -4.10304
       H     0.16085  -15.29103  -12.16797
       O     0.50754  -16.09855  -11.80583
      H1     1.37456  -16.18205  -12.22004
       H    -4.44294  -17.56114   -9.32685
       O    -4.95862  -17.85342  -10.10796
      H1    -4.75022  -18.78757   -9.96656
       H     3.66469  -12.79945   -9.04662
       O     2.75389  -12.65183   -8.78621
      H1     2.83611  -12.19695   -7.93722
       H     0.84662  -17.39099   -3.43535
       O     1.45338  -16.67345   -3.21460
      H1     1.83746  -16.52448   -4.10248
       H     0.61874  -17.65338  -14.68691
       O    -0.21444  -17.63487  -14.28834
      H1     0.05302  -17.64718  -13.35384
       H     1.25821  -10.51823  -10.41150
       O     0.74102  -10.00041  -10.99958
      H1     1.42382   -9.44500  -11.40425
       H     2.10821  -13.94700   -7.56891
       O     1.62160  -14.71404   -7.21851
      H1     0.71374  -14.36934   -7.07402
       H    -0.63194  -11.26231   -5.25309
       O    -0.04589  -11.44776   -6.02099
      H1     0.55545  -10.65773   -6.10817
       H     5.40524  -14.90242  -11.56886
       O     5.84446  -15.59662  -12.03628
      H1     6.44180  -15.99189  -11.35704
       H    -6.17739  -15.21445   -8.46544
       O    -7.16223  -15.32057   -8.47290
      H1    -7.35697  -14.58228   -7.93415
       H    -1.93291  -10.81761  -10.17120
       O    -2.67962  -10.56643  -10.68849
      H1    -3.25864  -10.07800  -10.04704
       H    -4.75826  -16.40455  -12.89506
       O    -3.83643  -16.06671  -12.75987
      H1    -3.24215  -16.79761  -12.79974
       H    -3.12398  -14.43435  -12.88977
       O    -2.58757  -13.73001  -13.30406
      H1    -1.83456  -13.79162  -12.70812
       H     6.61153  -13.46467   -7.77124
       O     6.59035  -14.36779   -8.11185
      H1     6.08079  -14.64566   -7.33920
       H     7.08755  -18.08232   -7.30753
       O     6.59939  -18.30920   -6.55115
      H1     5.69861  -18.12088   -6.87453
       H    -4.62948  -13.28444  -11.24967
       O    -4.10756  -13.01598  -10.42745
      H1    -3.52651  -12.26783  -10.69094
       H    -5.89417  -17.34732  -12.12063
       O    -6.48637  -16.63984  -12.43563
      H1    -7.03526  -17.06109  -13.11940
       H    -0.23064  -19.35770   -9.68978
       O    -0.26088  -18.61442   -9.05291
      H1     0.31343  -17.92397   -9.41617
       H     2.94371  -16.11492  -16.97435
       O     3.25836  -15.88491  -17.80876
      H1     4.08165  -15.46781  -17.55587
       H     1.57523   -8.31871   -8.83104
       O     0.58590   -8.30830   -8.99092
      H1     0.56459   -8.78912   -9.83624
       H    -3.51255  -11.71807   -5.95721
       O    -3.44153  -12.46778   -6.54595
      H1    -4.43230  -12.62030   -6.69360
       H     3.79331  -10.68953   -5.71459
       O     3.45451  -11.60300   -5.90772
      H1     2.56428  -11.59668   -5.62508
       H     2.89843  -14.70490   -4.66002
       O     3.13862  -15.53704   -5.06044
      H1     2.65630  -15.38776   -5.86835
       H     2.31973  -16.25779  -15.06109
       O     2.33406  -17.12163  -15.54751
      H1     2.98246  -17.61988  -15.11854
       H     1.80672  -19.20134  -11.09467
       O     2.67037  -18.91829  -11.42309
      H1     3.18318  -18.89680  -10.62575
       H     5.69104  -14.97918  -13.98564
       O     5.29273  -14.30226  -14.59895
      H1     5.81827  -13.46707  -14.49213
       H     1.23449  -13.96077  -15.19886
       O     2.06761  -14.44423  -14.83976
      H1     2.62745  -14.03509  -15.49395
       H     1.65293   -9.55131  -15.16479
       O     1.93626   -9.83802  -14.30295
      H1     1.26255  -10.51356  -14.06611
       H    -0.13378  -12.87524  -12.41650
       O    -0.46878  -13.65332  -11.91290
      H1    -0.69081  -13.26059  -11.02992
       H    -1.54273  -15.75911   -6.96587
       O    -1.49511  -14.80851   -6.98924
      H1    -1.66922  -14.48435   -6.13014
       H     4.25575  -10.40708  -10.55201
       O     3.63494  -10.25415   -9.80966
      H1     3.34601  -11.17763   -9.65259
       H    -2.61051  -17.27454  -16.03592
       O    -2.90419  -18.12895  -15.63439
      H1    -2.14830  -18.38666  -15.13219
       H    -3.54523  -14.63332   -7.70668
       O    -4.37951  -14.57253   -8.14654
      H1    -4.20797  -13.96671   -8.84029
       H     5.61667  -16.58905   -5.90580
       O     5.70073  -15.65301   -5.66670
      H1     4.70767  -15.50624   -5.63252
       H     5.73446  -13.38483  -10.01690
       O     4.81793  -13.73654  -10.20995
      H1     4.78385  -14.42716   -9.55286
       H    -0.78259  -10.94155  -13.36671
       O     0.00597  -11.43632  -13.14802
      H1     0.31075  -11.01703  -12.33786
       H    -3.63388  -18.34534   -7.11576
       O    -3.21583  -17.67965   -7.72228
      H1    -2.40862  -18.19936   -7.98205
       H    -1.48330  -18.35282   -3.78101
       O    -0.67276  -18.32416   -3.22990
      H1    -0.54280  -19.26738   -3.12341
       H     3.80128  -18.96154   -3.37159
       O     4.34919  -19.48534   -3.98041
      H1     4.42337  -18.91453   -4.78807
       H     4.62533  -12.21872  -14.52185
       O     4.73506  -11.37470  -14.96989
      H1     3.87790  -11.01163  -15.01055
       H     8.34085  -12.63418  -10.89939
       O     7.42294  -12.37543  -11.09265
      H1     7.51137  -11.40136  -11.07825
       H     4.73982  -10.62447  -12.92510
       O     5.16880  -10.70742  -12.04462
      H1     5.51603  -11.58427  -12.07929
       H    -3.17587  -19.41895  -12.15640
       O    -2.70662  -18.57160  -11.97953
      H1    -3.31713  -18.17330  -11.32847

