180
frame 8 | Written by MDAnalysis XYZWriter (release 2.4.3)
       H    -9.16840   10.78262  -12.12144
       O    -9.76689   10.55745  -12.85522
      H1    -9.71855   11.31053  -13.48456
       H    -3.42692   17.75477  -12.53536
       O    -4.29304   18.25609  -12.47341
      H1    -4.30781   18.66915  -13.33992
       H   -11.48892    9.91737  -12.70190
       O   -12.39963    9.70527  -12.82767
      H1   -12.28131    8.81879  -13.13358
       H    -3.20293   14.40100  -14.72436
       O    -2.52937   13.80662  -15.06811
      H1    -2.80882   12.98524  -14.64040
       H    -2.71599    8.54636  -13.47503
       O    -2.20623    9.04541  -12.84344
      H1    -2.93289    9.59763  -12.45544
       H    -9.74392   18.58954  -18.43065
       O    -9.95674   19.27703  -19.12431
      H1   -10.86076   19.01588  -19.38796
       H   -10.04357   13.88810  -15.35112
       O   -10.33632   13.60985  -16.25403
      H1   -11.30067   13.80827  -16.30920
       H   -14.69344   15.49594  -12.38187
       O   -13.86192   15.92209  -11.99771
      H1   -14.23353   16.80419  -11.65501
       H    -6.22468   16.93288  -18.39128
       O    -6.57777   16.69720  -17.51131
      H1    -7.17041   17.46023  -17.35892
       H    -4.53051    7.37349  -14.46607
       O    -3.98237    8.08483  -14.65457
      H1    -4.61052    8.73438  -14.96483
       H   -13.01301   13.91672  -12.04149
       O   -13.10444   12.96043  -12.03294
      H1   -12.60272   12.72000  -12.83351
       H   -12.86003   18.30262  -11.02465
       O   -11.89304   18.30479  -11.08152
      H1   -11.79583   18.86376  -11.91423
       H    -1.15298   17.20367  -16.08208
       O    -1.76277   16.73016  -15.45168
      H1    -1.53282   15.82528  -15.48929
       H    -4.80557   16.02165  -11.99952
       O    -5.58822   15.49808  -12.30133
      H1    -5.90274   15.99707  -13.09095
       H   -10.43818    8.61681  -16.64006
       O   -10.23933    9.04004  -15.77291
      H1    -9.95121    9.92515  -16.02575
       H    -7.77424    9.02379  -11.05937
       O    -7.84540    9.69813  -10.37275
      H1    -7.58029    9.28941   -9.54785
       H    -6.42395   11.31112  -10.00582
       O    -6.59247   12.11390  -10.56734
      H1    -6.78028   11.83431  -11.47715
       H    -4.65524    9.83135  -17.17864
       O    -4.84862   10.37625  -16.35648
      H1    -5.75770   10.00490  -16.23604
       H    -8.54347    8.72348  -15.61553
       O    -7.59036    8.46005  -15.52219
      H1    -7.60156    7.58799  -15.06437
       H    -6.98585   19.18506   -8.23793
       O    -7.05174   18.24504   -8.39312
      H1    -7.35535   18.30968   -9.28220
       H    -8.02315   11.58210  -15.86789
       O    -8.83453   11.45430  -16.32153
      H1    -9.35326   12.28942  -16.17171
       H   -12.22961    9.78010  -17.71325
       O   -12.53265   10.68175  -17.64727
      H1   -11.82357   11.16773  -18.00856
       H    -4.23216   13.93267  -18.48036
       O    -5.20869   13.74131  -18.63692
      H1    -5.38178   12.86306  -18.30905
       H    -3.31072   16.89309   -9.05709
       O    -2.65831   16.26043   -9.37994
      H1    -3.22778   15.51244   -9.56323
       H   -12.32914   12.40392  -10.64108
       O   -11.90839   11.85104   -9.90570
      H1   -10.98901   12.16631   -9.94340
       H    -9.33111   15.12622  -10.47739
       O    -9.28500   14.18309  -10.70911
      H1    -8.37349   13.87552  -10.53552
       H    -8.71531   19.21802  -15.65551
       O    -7.98958   18.67588  -16.01289
      H1    -7.71069   18.06958  -15.28634
       H    -9.11530   14.05520  -12.97339
       O    -8.89046   13.69915  -13.82338
      H1    -7.97438   14.00735  -13.98222
       H   -13.44431   18.27931  -17.64278
       O   -12.77087   18.77458  -17.11359
      H1   -12.00280   18.12718  -17.01859
       H    -9.77838   17.01594  -16.79185
       O   -10.45081   17.27160  -17.43344
      H1   -10.55359   16.53468  -18.04401
       H    -7.17355    8.87056  -13.19889
       O    -6.89821    8.39332  -12.40851
      H1    -6.52934    9.09803  -11.94133
       H    -5.09637   13.97006   -9.65081
       O    -4.07456   13.94637   -9.72619
      H1    -3.94102   13.60157   -8.79890
       H    -7.00426   15.73311   -9.12235
       O    -6.73911   14.98024   -9.62897
      H1    -6.55536   15.37140  -10.48140
       H    -5.78253   14.55394  -15.23479
       O    -6.41512   13.81757  -15.39023
      H1    -6.55084   13.97982  -16.35727
       H   -11.61799   16.19094  -14.00795
       O   -12.52443   16.06906  -14.32469
      H1   -13.00171   16.45239  -13.56781
       H   -13.19381   13.02769  -15.33623
       O   -12.98537   13.83390  -15.96317
      H1   -13.13379   14.53558  -15.30498
       H   -13.21044   10.84117  -14.14454
       O   -13.39119   11.37442  -14.95715
      H1   -12.96658   10.88158  -15.75116
       H   -11.77512   19.01861  -14.05121
       O   -10.88939   19.00008  -13.79895
      H1   -10.64772   19.95576  -13.82760
       H    -1.00039   16.36343  -11.83314
       O    -1.98838   16.59286  -11.93774
      H1    -2.29092   16.43683  -11.02884
       H    -9.78498   16.65517   -9.41245
       O    -9.75876   16.76816  -10.35585
      H1   -10.60650   17.32899  -10.50683
       H    -9.29659   13.10104   -9.24277
       O    -9.49808   12.46036   -8.55262
      H1    -9.41098   12.99251   -7.73789
       H    -3.07163   12.38680  -12.67793
       O    -2.56028   12.95954  -12.03246
      H1    -3.22004   13.01225  -11.33368
       H    -9.52026   14.92983  -18.66242
       O   -10.37133   15.09050  -19.04357
      H1   -10.18944   15.50443  -19.90465
       H    -9.80385    8.07209  -13.73195
       O    -9.65265    7.18680  -13.35758
      H1   -10.26000    6.64982  -13.88634
       H    -6.42488   12.01329  -14.18649
       O    -6.33066   11.18993  -13.69565
      H1    -5.42765   11.16804  -13.43288
       H    -2.28922   10.85110  -14.44738
       O    -3.17992   11.34951  -14.44227
      H1    -3.71537   10.79129  -15.10590
       H    -7.69818   11.51674  -18.02797
       O    -6.97338   11.45450  -18.66994
      H1    -6.98926   12.34475  -19.02167
       H   -10.93442   10.20602   -9.70228
       O   -10.37418    9.42871   -9.46217
      H1    -9.51342    9.71462   -9.86322
       H   -10.01651   17.49277  -13.35603
       O   -10.01112   16.54844  -13.07319
      H1   -10.18020   16.55382  -12.11301
       H    -4.57087   10.92609  -10.97202
       O    -4.52586   10.16471  -11.49620
      H1    -4.60414    9.42765  -10.86626
       H   -13.59327   14.53757  -18.20171
       O   -13.26464   14.94543  -18.98014
      H1   -12.35597   15.01168  -18.83310
       H   -11.74957   13.41686   -6.71137
       O   -12.03060   13.75929   -7.60802
      H1   -11.47460   13.13534   -8.12697
       H    -7.07613   17.28296  -12.78351
       O    -7.25904   16.96250  -13.72167
      H1    -8.18382   16.63866  -13.57793
       H    -5.02726   16.41694  -16.32978
       O    -4.34628   15.84470  -15.90312
      H1    -3.50549   16.29749  -15.98732
       H    -1.87654   13.92901  -17.90351
       O    -2.63156   13.33381  -17.63605
      H1    -2.69668   13.43605  -16.65241
       H    -2.94269   19.84331  -15.38800
       O    -3.39296   19.01599  -15.13467
      H1    -2.84429   18.32921  -15.53826
       H    -7.41395   15.25955  -17.63559
       O    -7.94333   14.48604  -17.97444
      H1    -7.63636   14.42759  -18.90604
       H    -7.21612   10.90623   -7.27382
       O    -6.65919   11.21884   -8.01776
      H1    -7.33201   11.79249   -8.41238
       H    -7.22768   19.60944  -11.52305
       O    -6.88402   18.70560  -11.40144
      H1    -5.96042   18.81352  -11.56335
       H   -10.16358   12.98259  -18.37017
       O   -10.32462   12.17398  -18.83453
      H1   -10.65980   12.55010  -19.69574

