180
frame 4 | Written by MDAnalysis XYZWriter (release 2.4.3)
       H    -9.69432  -17.93998   14.62428
       O    -9.91697  -18.06865   15.54561
      H1    -9.49878  -18.91742   15.82963
       H    -9.15873  -10.63851    8.49123
       O    -9.08508  -11.49447    8.94771
      H1    -9.60938  -11.33458    9.76782
       H    -9.56051  -10.44071   12.17818
       O    -9.89572  -10.43966   11.29189
      H1   -10.76260  -10.85682   11.26630
       H   -14.41036  -10.12851   10.11468
       O   -13.67560   -9.66135    9.68461
      H1   -14.03414   -8.81989    9.34900
       H    -8.29639   -9.93175   15.26973
       O    -7.69215   -9.19225   15.17524
      H1    -6.83433   -9.48807   14.83921
       H    -4.60620  -16.38127    9.53001
       O    -5.56062  -16.39245    9.72672
      H1    -5.84674  -16.32445    8.82520
       H   -13.45785  -17.96163    5.97601
       O   -13.23478  -17.95446    6.93048
      H1   -13.03673  -17.03222    7.01069
       H    -6.16123  -13.33234   10.89690
       O    -6.64360  -14.13779   10.92682
      H1    -6.21280  -14.69737   10.26142
       H   -12.03940  -14.02147    7.43524
       O   -12.33018  -14.92522    7.18121
      H1   -13.08048  -14.86054    7.82634
       H   -11.54810  -15.63573   18.15006
       O   -11.83292  -15.89513   19.04082
      H1   -12.65358  -15.41750   19.14726
       H   -13.17692  -11.35017   14.27435
       O   -13.80453  -10.71986   14.74788
      H1   -14.59996  -11.25237   14.63060
       H    -5.38321  -14.46651   12.03558
       O    -5.09743  -14.61632   12.91932
      H1    -6.00281  -14.72936   13.32806
       H   -13.51892  -12.95977   17.25797
       O   -13.22859  -13.68527   16.69301
      H1   -12.24043  -13.50947   16.66270
       H    -8.83276   -8.17413   14.13399
       O    -9.21054   -7.77151   13.37908
      H1   -10.16126   -7.86972   13.43044
       H    -5.74644  -10.84842   12.96979
       O    -5.57115  -10.49705   13.93506
      H1    -4.74697  -10.07992   13.68580
       H   -13.17648  -18.64415   18.89032
       O   -13.67482  -18.33138   19.64951
      H1   -13.21052  -17.44283   19.72788
       H    -8.92400  -18.45371   12.61476
       O    -9.64026  -17.79558   12.78879
      H1   -10.42734  -18.09156   12.29649
       H   -15.89278  -14.94119   16.99440
       O   -15.81359  -14.24988   16.35973
      H1   -14.86797  -14.20023   16.22725
       H   -12.82764  -11.32512   10.19565
       O   -12.16825  -11.97919   10.10492
      H1   -12.66533  -12.85657   10.34823
       H    -5.51275  -13.12719   17.33443
       O    -4.94135  -12.78964   18.09415
      H1    -5.01263  -13.46292   18.80044
       H   -15.03155  -19.33692   12.09222
       O   -15.53733  -19.15173   12.91855
      H1   -15.24169  -18.24056   13.11991
       H   -15.54408  -14.90547    8.73531
       O   -14.77022  -15.40730    8.40051
      H1   -14.98288  -16.33618    8.47477
       H   -17.79562  -14.06348   15.98497
       O   -18.75790  -14.32388   15.83403
      H1   -18.65803  -15.23042   15.46122
       H   -10.09949  -15.51390    9.42572
       O   -10.33162  -16.24085    8.84153
      H1   -10.83121  -15.76737    8.18730
       H   -16.22733  -11.81814   10.10583
       O   -15.92079  -11.00194   10.58413
      H1   -16.44292  -11.13428   11.41334
       H    -7.19893  -13.28214    7.86906
       O    -6.48608  -13.94313    7.89728
      H1    -6.98981  -14.73246    7.63447
       H   -15.11337  -18.66797    9.32199
       O   -15.54822  -18.14161    8.55835
      H1   -14.77853  -18.28177    7.93096
       H    -4.15103  -14.88128   16.36886
       O    -3.34958  -14.80050   15.83194
      H1    -3.42398  -13.96868   15.35592
       H   -11.23154  -17.10995   10.35852
       O   -11.85706  -17.35343   11.06092
      H1   -11.65339  -16.67724   11.68414
       H   -15.97384   -8.78193   16.54733
       O   -15.15168   -9.28637   16.89863
      H1   -14.58401   -9.19234   16.09742
       H    -8.30789  -15.36185   14.22099
       O    -8.84888  -14.78052   13.71601
      H1    -9.16561  -15.36995   13.03970
       H   -12.19950   -7.49683   14.23571
       O   -11.96308   -6.56663   14.46746
      H1   -11.65343   -6.80858   15.35865
       H   -14.45260  -16.95633   11.18020
       O   -14.74720  -16.43467   11.91115
      H1   -15.69884  -16.45327   11.77912
       H   -17.66294  -13.94356    9.57574
       O   -16.91224  -13.35805    9.23504
      H1   -17.13013  -13.40245    8.23496
       H   -11.99465  -13.38941   13.38200
       O   -12.10612  -12.60047   12.85536
      H1   -11.81319  -12.92375   12.02250
       H   -13.71710  -14.82704   11.15680
       O   -13.32438  -14.36020   10.37205
      H1   -13.93996  -14.65740    9.67587
       H    -7.85658  -18.43367    8.71632
       O    -8.10873  -19.37045    8.79703
      H1    -7.30810  -19.63276    9.36723
       H   -12.20066  -15.86061   14.23195
       O   -11.61718  -15.32583   13.73417
      H1   -10.69943  -15.33529   14.14269
       H   -16.97387  -16.99005   15.83868
       O   -17.58014  -16.71292   15.11148
      H1   -18.34383  -17.30488   15.31748
       H   -10.53414  -11.81182   17.69089
       O   -10.22696  -12.60253   17.32538
      H1    -9.27559  -12.53847   17.53456
       H    -8.67844  -13.79475   19.79152
       O    -8.00749  -13.48666   19.11883
      H1    -7.19184  -14.03167   19.25882
       H   -13.10333   -9.13249   12.27196
       O   -12.67663   -8.99980   13.13434
      H1   -13.17697   -9.71133   13.59924
       H    -8.76498  -16.52761    8.16365
       O    -7.84578  -16.53314    7.80714
      H1    -8.06383  -16.64909    6.86117
       H    -9.16327   -8.85204    9.99531
       O    -8.84615   -8.55861    9.16075
      H1    -9.56863   -7.89946    8.94687
       H   -14.85441  -16.89043   17.69342
       O   -15.43861  -17.42783   17.13843
      H1   -14.91591  -18.23430   16.87668
       H   -16.38605  -12.38975   16.54513
       O   -16.62080  -11.50646   16.29001
      H1   -15.80198  -10.96056   16.53813
       H    -6.87623  -19.37770   16.20522
       O    -6.25109  -18.93715   15.59695
      H1    -5.56211  -18.65548   16.21067
       H    -8.77433  -15.37379   16.33811
       O    -9.39716  -15.77152   16.95181
      H1    -9.50044  -16.68375   16.69777
       H   -15.32296  -14.24365   12.99572
       O   -14.93873  -13.34692   12.84559
      H1   -14.25154  -13.49841   12.18996
       H   -10.29683  -11.61264   13.62633
       O    -9.34512  -11.57681   13.70300
      H1    -9.15810  -12.12895   12.94319
       H   -17.71967  -15.58021   13.43054
       O   -17.84971  -15.11543   12.58362
      H1   -18.39953  -15.80645   12.07620
       H    -9.16872  -13.34374    9.78310
       O    -9.26722  -14.09591   10.37392
      H1    -8.33020  -14.29327   10.54021
       H   -16.70293  -12.44100   13.37401
       O   -17.16603  -11.61203   13.07965
      H1   -17.30078  -11.11068   13.88143
       H    -6.74932  -16.97984   13.58439
       O    -6.98888  -16.60469   14.43509
      H1    -6.74380  -17.33986   15.03605
       H    -5.84494  -18.70325   11.72607
       O    -5.67144  -17.80760   12.20216
      H1    -5.48476  -17.25999   11.44838
       H   -13.24636  -11.22822   19.07275
       O   -13.83404  -12.00863   19.07142
      H1   -14.59694  -11.50508   19.46304
       H   -12.61539  -10.22932    8.07530
       O   -12.23240  -10.79922    7.48026
      H1   -11.89010  -11.55015    7.93770
       H    -9.87315   -9.63829   18.23964
       O   -10.76017   -9.90734   17.90177
      H1   -11.11521  -10.23934   18.74591
       H    -6.36963  -15.81738   16.04714
       O    -5.83769  -15.46623   16.81375
      H1    -6.43370  -15.51337   17.49524
       H    -5.61309  -11.53978   10.39158
       O    -5.39620  -11.73637   11.31651
      H1    -4.43005  -11.99241   11.29250

