180
frame 5 | Written by MDAnalysis XYZWriter (release 2.4.3)
       H     6.23089   -7.58783  -12.54539
       O     5.98125   -8.48132  -12.24190
      H1     6.79855   -8.95377  -12.15490
       H     2.75459   -5.33931   -6.04353
       O     2.91994   -4.55222   -6.56725
      H1     2.18359   -4.57028   -7.19714
       H     6.52344   -5.80232  -13.73790
       O     7.32265   -6.31200  -13.70117
      H1     7.80306   -5.92340  -12.95814
       H     6.21622   -1.64950   -3.42190
       O     5.79018   -2.27255   -4.01856
      H1     5.71965   -3.07067   -3.44767
       H     7.33124   -4.90232  -15.52974
       O     7.63378   -4.00741  -15.65228
      H1     7.13682   -3.59143  -14.96550
       H    10.96232   -9.94353  -11.13875
       O    10.69315   -9.02001  -11.47456
      H1    10.97565   -9.00443  -12.41435
       H    10.86671   -7.14072  -10.51920
       O    11.35841   -6.78855   -9.77632
      H1    11.96832   -7.50564   -9.56814
       H     8.05995   -9.74020   -9.76126
       O     8.45610   -9.68572   -8.86949
      H1     8.24877   -8.77418   -8.80766
       H     3.83931   -4.79835  -11.12771
       O     3.48446   -4.91670  -11.99875
      H1     2.67868   -5.40344  -11.90271
       H     3.87799  -10.17567   -8.89404
       O     3.48158   -9.37552   -8.51638
      H1     3.89010   -8.55297   -8.89005
       H     1.03403   -7.65768  -11.77777
       O     1.15150   -6.83685  -11.30262
      H1     1.40039   -7.06486  -10.42060
       H     5.21110   -3.78535   -9.58770
       O     4.54590   -4.46802   -9.73431
      H1     3.83095   -4.20824   -9.11228
       H     8.16898  -10.66050  -13.64847
       O     8.77497  -11.07329  -14.29374
      H1     8.22658  -10.95990  -15.08507
       H     5.60918  -12.38047   -7.21407
       O     6.52799  -12.68092   -7.25622
      H1     7.11229  -11.93739   -7.07150
       H     5.00496   -0.18593  -10.01197
       O     5.35422    0.45524  -10.67493
      H1     4.87864    0.28380  -11.48303
       H     7.11686   -5.37088   -7.46108
       O     7.05103   -4.48566   -7.06229
      H1     6.16385   -4.04810   -7.03313
       H    11.65869  -12.28214   -8.33241
       O    10.79068  -12.73042   -8.34089
      H1    11.00196  -13.61945   -8.65183
       H    11.21506   -3.14123  -10.60088
       O    11.51931   -3.93258  -11.08982
      H1    11.53004   -3.54067  -11.93079
       H    12.15273  -11.28958   -4.14253
       O    11.63817  -10.51139   -4.17888
      H1    11.10486  -10.70029   -4.94758
       H     5.45338   -9.25380   -4.39245
       O     5.23055  -10.08714   -4.84458
      H1     5.18051  -10.82350   -4.24511
       H     2.55844  -12.29844   -8.45300
       O     3.26520  -12.05299   -9.07186
      H1     2.92757  -11.93579   -9.97516
       H     5.24569   -2.65611  -13.94871
       O     6.09916   -2.30915  -14.11489
      H1     6.00864   -1.51723  -14.60759
       H     9.33701   -6.80965   -4.68834
       O    10.20319   -7.21990   -4.66328
      H1    10.27382   -7.52080   -5.56047
       H     7.52565   -4.06037   -8.85915
       O     7.46621   -4.24231   -9.80907
      H1     7.49773   -3.35802  -10.19317
       H     3.56532   -7.05220   -4.09206
       O     2.83012   -6.62512   -4.55689
      H1     2.57252   -7.36531   -5.11066
       H     9.06024  -11.01407   -6.17663
       O     9.82103  -11.57736   -6.04748
      H1     9.78487  -12.10827   -6.90462
       H     2.18852   -1.73121  -11.76597
       O     2.69594   -2.32070  -12.32193
      H1     2.49562   -3.24083  -12.15485
       H    12.36094   -8.72243   -4.12781
       O    13.03179   -8.10344   -3.87651
      H1    13.60971   -8.64316   -3.31452
       H    13.31307   -9.36712   -8.82120
       O    13.24012   -8.38113   -8.75535
      H1    13.83803   -8.18388   -7.99733
       H     8.00751   -2.59544   -5.58883
       O     8.91600   -2.30447   -5.77328
      H1     9.06365   -1.44804   -5.20385
       H     2.50308   -8.72151   -6.93843
       O     1.85961   -8.62967   -6.20920
      H1     1.65081   -9.51374   -5.94662
       H     8.78848   -7.20792   -8.18833
       O     7.80931   -6.97036   -8.05275
      H1     7.54998   -6.47114   -8.82640
       H    12.37458   -4.43290   -8.65122
       O    13.28405   -4.15907   -8.58087
      H1    13.44405   -3.82584   -7.70030
       H     4.92931  -10.28536  -12.15717
       O     4.85933  -11.12969  -12.49971
      H1     3.91048  -11.36956  -12.42402
       H     5.11719   -5.14685   -2.97911
       O     5.83955   -4.55752   -2.74075
      H1     6.20809   -4.98637   -1.99845
       H     9.78479   -5.35516   -1.37882
       O     9.74904   -4.66642   -2.04394
      H1    10.52280   -4.85302   -2.63269
       H    10.33021  -12.20660   -9.97988
       O    10.51655  -11.87047  -10.88615
      H1     9.96787  -12.45869  -11.45772
       H    10.07991   -1.26386   -9.80861
       O    10.49636   -1.38724  -10.67609
      H1     9.74803   -1.55452  -11.25508
       H     6.58405  -10.27315   -5.74807
       O     7.46635  -10.27680   -6.21859
      H1     7.49282   -9.61471   -6.96703
       H     8.76040   -0.42191   -8.16202
       O     8.99536   -1.32431   -8.41622
      H1     9.05412   -1.77221   -7.55786
       H    12.31855   -3.15306   -6.14934
       O    13.21392   -2.79316   -6.21230
      H1    13.11446   -2.06881   -6.85889
       H    15.73833   -8.29398  -10.44129
       O    14.93654   -7.85333  -10.67318
      H1    14.37175   -7.91425   -9.87271
       H    12.93955   -7.22159  -13.21216
       O    12.61733   -8.03922  -13.67500
      H1    13.10859   -8.72358  -13.22751
       H    11.49548   -6.05005   -3.36216
       O    11.74144   -5.11940   -3.59308
      H1    11.24539   -4.88490   -4.36770
       H     4.21630   -7.45808  -14.33677
       O     4.67912   -8.21794  -14.56611
      H1     5.05500   -8.57086  -13.71278
       H     4.32798   -5.15530  -13.34509
       O     4.71664   -5.21550  -14.24870
      H1     3.95408   -5.01341  -14.84287
       H     4.39241   -3.12295   -6.55999
       O     5.21083   -2.63070   -6.75896
      H1     5.50826   -2.42117   -5.88691
       H     9.63675   -8.92108  -14.60460
       O     9.38940   -8.18477  -15.23463
      H1     8.47968   -7.98958  -15.08552
       H    13.88333   -6.58313  -11.71425
       O    13.49910   -5.89556  -12.31894
      H1    12.94757   -5.37876  -11.70146
       H    10.67835   -7.47971   -8.30439
       O    10.21029   -8.08057   -7.65445
      H1     9.91244   -8.91025   -8.09653
       H     7.43722   -0.93389  -11.11591
       O     7.48124   -1.86202  -11.44732
      H1     6.96095   -1.90775  -12.26017
       H     9.81935   -3.75852   -5.99114
       O    10.63743   -4.32812   -6.06038
      H1    10.40414   -5.28182   -5.95505
       H     8.99442   -9.71708  -11.52165
       O     8.15230   -9.97961  -11.82103
      H1     8.35648  -10.87283  -11.96228
       H    10.12585   -5.16174  -11.11291
       O     9.36963   -5.67791  -11.39616
      H1     8.66525   -5.28238  -10.80266
       H     6.04902   -7.15622   -4.27134
       O     5.40463   -7.59388   -3.69348
      H1     5.52721   -7.19659   -2.82175
       H     4.79845   -6.41638   -9.90199
       O     4.91051   -7.37244   -9.78998
      H1     5.45343   -7.62770  -10.50038
       H     7.53833   -5.47069   -5.47884
       O     7.87221   -5.98243   -4.76491
      H1     7.86031   -5.44125   -3.97441
       H     4.08432   -0.94554   -7.40764
       O     3.83171   -0.71168   -8.31550
      H1     3.21674    0.10384   -8.19108
       H     9.10474   -9.35349   -2.11829
       O     8.76524   -8.46253   -2.50026
      H1     9.23581   -8.31591   -3.32347
       H     2.67268   -2.18329   -8.99812
       O     2.34048   -3.07071   -8.88337
      H1     1.77486   -3.37679   -9.58647

