180
frame 5 | Written by MDAnalysis XYZWriter (release 2.4.3)
       H   -11.82032  -18.68760   -7.66922
       O   -12.01889  -19.25962   -8.45389
      H1   -12.32736  -20.03389   -7.95962
       H    -4.17615  -12.77853  -15.23298
       O    -5.08297  -13.12811  -15.35736
      H1    -5.50221  -12.31674  -15.67985
       H    -5.78188  -13.56152  -13.51867
       O    -5.94725  -13.59449  -12.53666
      H1    -5.96373  -14.60461  -12.43233
       H    -3.68105  -15.95077   -5.85530
       O    -4.01008  -15.94330   -4.93125
      H1    -3.62333  -15.14549   -4.57359
       H    -1.11337  -12.51928   -8.45791
       O    -1.29648  -12.51730   -9.41534
      H1    -2.22719  -12.93031   -9.43771
       H    -1.77587  -12.03081  -15.82285
       O    -2.52394  -11.63456  -15.29061
      H1    -2.42859  -12.23506  -14.50939
       H   -12.23073  -14.61475  -13.11903
       O   -11.99818  -15.04737  -13.93892
      H1   -12.34512  -15.94102  -13.66455
       H    -8.14948  -11.02453  -13.81022
       O    -7.80595  -11.67928  -14.39396
      H1    -7.22327  -11.22537  -14.97720
       H    -2.03308  -14.91638  -14.30149
       O    -1.84094  -15.56785  -15.04778
      H1    -1.10584  -16.04022  -14.65457
       H   -12.64382  -13.03716   -8.93770
       O   -13.37251  -13.62788   -9.19926
      H1   -12.86956  -14.44181   -8.95109
       H    -0.16986  -13.50322  -16.78182
       O    -0.31397  -13.65287  -15.79387
      H1    -0.68346  -14.52009  -15.72459
       H     0.16085  -15.29103  -12.16797
       O     0.50754  -16.09855  -11.80583
      H1     1.37456  -16.18205  -12.22004
       H    -4.44294  -17.56114   -9.32685
       O    -4.95862  -17.85342  -10.10796
      H1    -4.75022  -18.78757   -9.96656
       H   -10.28161  -18.90940   -9.28302
       O    -9.60585  -18.47675   -9.82110
      H1    -9.89813  -17.59941   -9.72655
       H    -5.93599  -18.47566  -15.74546
       O    -5.77716  -17.69375  -15.20346
      H1    -4.78765  -17.65585  -15.32523
       H    -9.10888  -11.70994  -17.54562
       O    -8.78058  -10.84742  -17.27207
      H1    -8.78146  -10.34891  -18.12005
       H   -12.77215  -18.75538  -15.98207
       O   -12.86751  -18.09105  -16.67983
      H1   -12.15127  -18.42008  -17.23688
       H     0.61874  -17.65338  -14.68691
       O    -0.21444  -17.63487  -14.28834
      H1     0.05302  -17.64718  -13.35384
       H   -13.76856  -17.25017  -13.60387
       O   -12.87621  -17.51272  -13.26075
      H1   -12.93409  -17.31180  -12.26659
       H    -9.03353  -16.03260  -17.06674
       O    -9.12969  -15.94599  -16.10752
      H1    -9.15080  -14.94601  -16.18683
       H    -6.17739  -15.21445   -8.46544
       O    -7.16223  -15.32057   -8.47290
      H1    -7.35697  -14.58228   -7.93415
       H    -1.93291  -10.81761  -10.17120
       O    -2.67962  -10.56643  -10.68849
      H1    -3.25864  -10.07800  -10.04704
       H    -9.84746  -14.88326   -6.40135
       O   -10.76868  -15.14164   -6.32921
      H1   -11.14465  -14.41552   -5.79111
       H    -4.75826  -16.40455  -12.89506
       O    -3.83643  -16.06671  -12.75987
      H1    -3.24215  -16.79761  -12.79974
       H    -3.12398  -14.43435  -12.88977
       O    -2.58757  -13.73001  -13.30406
      H1    -1.83456  -13.79162  -12.70812
       H    -9.96085  -11.76556  -12.47006
       O   -10.37104  -10.94879  -12.70594
      H1   -11.13032  -11.10233  -12.11104
       H    -9.41617  -16.11548   -4.40495
       O    -9.06597  -16.97250   -4.64606
      H1    -8.84223  -16.80019   -5.60202
       H    -9.28458  -12.91770  -15.62791
       O    -9.67671  -13.27886  -16.44436
      H1   -10.58831  -13.47788  -16.27937
       H    -5.62175  -12.20002   -9.75206
       O    -6.07640  -11.57836   -9.08984
      H1    -5.37971  -10.91392   -8.77855
       H    -8.02123  -12.51658   -8.41828
       O    -8.52794  -12.99564   -7.76772
      H1    -7.97735  -12.75238   -6.97617
       H    -4.62948  -13.28444  -11.24967
       O    -4.10756  -13.01598  -10.42745
      H1    -3.52651  -12.26783  -10.69094
       H   -10.33884  -10.96858  -14.65635
       O   -10.85231  -10.64457  -15.39650
      H1   -10.09338  -10.77219  -16.01829
       H    -5.89417  -17.34732  -12.12063
       O    -6.48637  -16.63984  -12.43563
      H1    -7.03526  -17.06109  -13.11940
       H    -8.86357  -16.16478  -11.41285
       O    -9.01599  -15.59677  -10.61179
      H1    -8.15138  -15.53888  -10.17224
       H    -0.23064  -19.35770   -9.68978
       O    -0.26088  -18.61442   -9.05291
      H1     0.31343  -17.92397   -9.41617
       H   -13.43318  -13.68929  -10.92770
       O   -13.61184  -14.06488  -11.81693
      H1   -13.66626  -15.04912  -11.63320
       H    -7.99136  -18.44003   -9.01460
       O    -7.22758  -18.79701   -8.60419
      H1    -6.49806  -18.33300   -9.05041
       H    -3.51255  -11.71807   -5.95721
       O    -3.44153  -12.46778   -6.54595
      H1    -4.43230  -12.62030   -6.69360
       H   -10.24984  -19.37932  -16.01905
       O    -9.74207  -18.84316  -15.47286
      H1    -9.88575  -17.98853  -15.89508
       H    -5.13669  -14.54431  -16.61092
       O    -5.06876  -15.39398  -17.02765
      H1    -5.51119  -16.02238  -16.40298
       H    -8.49769   -9.91589  -11.09965
       O    -8.56942  -10.31335  -10.24708
      H1    -7.74527  -10.77323  -10.13540
       H    -5.60817   -9.76603  -16.74308
       O    -5.96222  -10.63631  -16.58149
      H1    -6.85701  -10.49611  -16.89741
       H    -8.67217  -14.15187  -11.65933
       O    -8.84338  -13.47470  -12.32185
      H1    -7.95626  -13.44153  -12.71082
       H    -4.69807  -19.08136  -19.27160
       O    -5.53319  -19.28253  -18.75966
      H1    -5.94169  -18.43796  -18.80004
       H   -14.10975  -16.98989  -10.77075
       O   -13.21373  -16.63865  -10.85936
      H1   -12.93312  -16.84547   -9.93842
       H    -0.13378  -12.87524  -12.41650
       O    -0.46878  -13.65332  -11.91290
      H1    -0.69081  -13.26059  -11.02992
       H   -12.53980  -13.89800  -16.57214
       O   -12.09032  -14.71401  -16.58044
      H1   -11.72849  -14.92392  -15.67970
       H    -1.54273  -15.75911   -6.96587
       O    -1.49511  -14.80851   -6.98924
      H1    -1.66922  -14.48435   -6.13014
       H    -9.16309  -18.16311  -12.84677
       O    -8.67736  -18.94091  -12.46168
      H1    -9.03786  -19.04430  -11.55601
       H    -6.89339  -18.67555   -6.62099
       O    -6.38196  -18.99274   -5.88607
      H1    -6.40908  -18.24253   -5.29582
       H    -2.61051  -17.27454  -16.03592
       O    -2.90419  -18.12895  -15.63439
      H1    -2.14830  -18.38666  -15.13219
       H    -3.54523  -14.63332   -7.70668
       O    -4.37951  -14.57253   -8.14654
      H1    -4.20797  -13.96671   -8.84029
       H    -2.00309  -15.41251  -18.35887
       O    -2.63512  -15.82657  -18.96346
      H1    -3.44917  -15.52552  -18.57070
       H    -7.25547  -16.59579  -19.11775
       O    -6.35244  -16.20368  -19.20645
      H1    -6.27476  -15.68757  -18.30856
       H    -9.35214  -16.38008  -19.34115
       O    -8.80872  -16.79612  -18.62555
      H1    -9.14450  -17.74432  -18.64520
       H    -3.63388  -18.34534   -7.11576
       O    -3.21583  -17.67965   -7.72228
      H1    -2.40862  -18.19936   -7.98205
       H   -11.11141  -16.01570   -7.89591
       O   -11.19540  -16.33080   -8.80705
      H1   -10.41612  -15.87567   -9.19929
       H    -9.09857  -16.28506  -14.23859
       O    -9.48892  -16.43790  -13.40275
      H1   -10.37819  -16.10478  -13.68692
       H    -6.00080  -15.43721   -5.18473
       O    -6.63534  -14.73755   -5.13965
      H1    -6.65903  -14.59024   -4.21086
       H    -3.17587  -19.41895  -12.15640
       O    -2.70662  -18.57160  -11.97953
      H1    -3.31713  -18.17330  -11.32847

