180
frame 1 | Written by MDAnalysis XYZWriter (release 2.4.3)
       H   -17.08491   18.75796   13.38645
       O   -18.03048   18.62155   13.16352
      H1   -18.11269   17.72920   13.64973
       H   -14.85398   14.57494    5.61559
       O   -14.19736   15.24230    5.72214
      H1   -13.67888   15.31195    4.90895
       H   -18.08460    5.79764    9.96244
       O   -18.48930    6.68413   10.16557
      H1   -18.66184    7.02697    9.28156
       H   -17.28899   15.98276    3.01324
       O   -17.52080   15.30225    2.34413
      H1   -18.38848   15.66460    2.01964
       H   -15.35275    7.24224   10.50411
       O   -15.66437    6.52321   11.06521
      H1   -16.60236    6.74669   11.26011
       H   -14.38717   17.26794    9.61057
       O   -15.23482   17.71388    9.56326
      H1   -15.17650   18.06832    8.67016
       H    -8.41698   14.06855   14.29038
       O    -9.00313   14.80966   14.20669
      H1    -9.40462   14.81545   13.33169
       H   -17.05557   15.51764   17.36732
       O   -16.66077   16.33696   17.12132
      H1   -17.06287   16.91239   17.77755
       H   -13.63842   15.75863   16.94546
       O   -13.63040   15.01014   16.34681
      H1   -14.21564   14.37004   16.78794
       H   -13.16666    8.96506   12.74753
       O   -13.64214    9.69231   13.20617
      H1   -12.88229   10.03883   13.69408
       H   -17.17686   15.87833   14.23425
       O   -18.07359   16.22807   14.46352
      H1   -17.83679   16.68149   15.31017
       H   -14.08979   16.91056   13.31722
       O   -13.39431   17.41043   12.87963
      H1   -12.75654   17.52749   13.62705
       H   -14.19686   10.05362    6.87720
       O   -15.03917    9.54031    6.85894
      H1   -15.09883    9.27700    7.81500
       H   -14.83727    7.73673   13.74495
       O   -14.27449    6.94035   13.48478
      H1   -14.66005    6.69689   12.59256
       H   -13.54060   17.71926   17.44529
       O   -13.97923   17.12152   18.10876
      H1   -14.91268   17.10331   17.78200
       H   -19.72893   18.78325   15.80583
       O   -18.93751   19.30643   15.66055
      H1   -18.70864   19.14054   14.69770
       H    -8.96770   18.53993   12.50950
       O    -9.50713   19.29694   12.26946
      H1   -10.19098   18.84049   11.77960
       H   -14.24420   19.10182   15.20978
       O   -13.78955   18.87555   16.02915
      H1   -12.91196   18.73809   15.70792
       H   -18.79315    9.77348    7.02315
       O   -18.54069   10.66412    7.15818
      H1   -17.58891   10.59764    7.16974
       H    -9.84779   17.61856    9.07204
       O    -9.24915   16.85614    9.21498
      H1    -9.80775   16.07089    9.05298
       H   -15.62930   13.40664    3.81914
       O   -16.16396   13.47617    4.59645
      H1   -17.06811   13.70604    4.20359
       H   -10.87724   14.04336    9.68314
       O   -10.31425   14.29412    8.93003
      H1   -10.87705   13.98158    8.23015
       H    -8.78334   11.79037   11.76715
       O    -9.35102   12.36041   12.35003
      H1   -10.02815   11.75887   12.71941
       H   -15.18867    9.43665   13.85736
       O   -15.94025    8.96804   14.34647
      H1   -16.71567    9.40832   13.94982
       H   -11.16471   10.41831   14.85739
       O   -11.26128   10.60133   13.90640
      H1   -10.85633    9.83610   13.44940
       H   -17.90690   14.04214   18.92646
       O   -18.23741   14.96923   19.01348
      H1   -17.76941   15.26748   19.81622
       H   -17.44867   17.44417   11.77699
       O   -17.25092   16.81907   11.06360
      H1   -16.37972   17.17161   10.74391
       H   -10.44084    8.44381   11.47035
       O   -10.98830    9.20749   11.61949
      H1   -11.34091    9.43899   10.71879
       H   -19.25615   10.04197    9.62201
       O   -18.70320    9.81306   10.39347
      H1   -18.32547    9.05901    9.93110
       H   -11.00599   15.81003   11.34507
       O   -10.36390   16.39389   11.85098
      H1    -9.84057   16.85732   11.19521
       H   -14.69656   12.62327   18.70876
       O   -15.01959   13.46611   18.39680
      H1   -15.63422   13.79922   19.06675
       H   -16.05009   18.27110    5.92833
       O   -16.07832   18.29547    6.95081
      H1   -16.96646   18.66429    6.94235
       H   -11.69707   15.09400   16.20885
       O   -10.70939   15.17806   16.30610
      H1   -10.41384   14.72994   15.50175
       H   -10.73626   13.14877   11.59593
       O   -11.57817   13.27335   11.12690
      H1   -11.82532   12.41654   10.69727
       H   -18.54522    9.75666   12.18739
       O   -18.32884    9.77371   13.13918
      H1   -18.74288    9.06428   13.55276
       H   -19.37033   16.42571    8.78361
       O   -18.83994   17.19617    8.97150
      H1   -18.46999   16.94536    9.86191
       H   -17.37565   18.96443   19.19442
       O   -17.84608   18.42303   18.61370
      H1   -18.11388   19.10267   17.94479
       H   -13.44970   15.84390   10.46475
       O   -12.82793   16.45132   10.09175
      H1   -12.71370   16.93357   10.90997
       H   -20.10995    9.61710   16.47046
       O   -19.66056    9.97247   17.23960
      H1   -18.73264    9.87747   16.94932
       H   -12.62784   11.79090    6.49280
       O   -12.70886   10.79356    6.56429
      H1   -12.75824   10.53178    5.60765
       H   -14.43177   18.30179    6.62388
       O   -13.80231   17.98159    5.92966
      H1   -14.04628   17.07155    5.95360
       H   -16.15456   12.66607   12.79590
       O   -16.07605   12.71908   13.75886
      H1   -17.00049   12.66024   14.03085
       H   -18.74574   18.50216    7.68816
       O   -18.71415   18.86891    6.80532
      H1   -19.61700   19.26303    6.78707
       H   -17.69295   15.21514   11.36993
       O   -17.93514   14.28710   11.46676
      H1   -18.72282   14.27385   10.91557
       H   -16.59032   13.29312   10.91053
       O   -15.70178   12.82150   10.85918
      H1   -14.99577   13.42387   11.12737
       H   -18.58422   11.43490   14.39510
       O   -18.37223   12.19825   14.89412
      H1   -19.06200   12.89586   14.66174
       H   -17.94242   17.50990    4.42161
       O   -17.29442   17.98039    3.88871
      H1   -17.96014   18.49158    3.38479
       H   -19.26173   12.30685    6.20907
       O   -19.49476   13.04848    5.65896
      H1   -19.24000   12.71324    4.78831
       H   -16.93654   12.62931   17.65957
       O   -17.94136   12.59752   17.70817
      H1   -18.27719   12.32897   16.85321
       H   -14.76630   15.33999   14.99748
       O   -15.27884   15.36467   14.17599
      H1   -15.48369   14.40218   14.03176
       H   -19.80535    7.06887    7.60864
       O   -19.24876    7.81452    7.29288
      H1   -18.66560    7.27665    6.69908
       H   -13.78433   10.62521   11.52675
       O   -13.69075   10.92195   10.58871
      H1   -14.38485   11.55794   10.53382
       H   -18.24334   13.63562    8.70508
       O   -19.11324   13.31261    8.94351
      H1   -19.09086   12.41051    8.64787
       H   -12.51719   18.45611    7.59238
       O   -11.90455   18.95989    8.14190
      H1   -11.77292   19.65079    7.49815
       H   -10.98822   18.53857   15.23622
       O   -11.54237   17.72649   15.03406
      H1   -11.06670   17.06295   15.64354
       H   -12.61746   14.25202    6.33396
       O   -12.13028   13.50603    6.74035
      H1   -11.25830   13.41971    6.23558
       H   -14.43050    9.48364    9.85152
       O   -14.72256    8.61644    9.50260
      H1   -13.87995    8.10968    9.41096
       H   -13.16141   13.82817   12.02827
       O   -13.85185   14.46108   11.94786
      H1   -13.89523   14.71397   12.85300
       H   -16.80284    9.09519   15.93306
       O   -17.16764    9.15989   16.84132
      H1   -16.35142    9.03493   17.36567
       H   -15.99226   11.54778    4.18238
       O   -16.28343   10.58377    4.14402
      H1   -15.43328   10.17058    4.42948

