180
frame 2 | Written by MDAnalysis XYZWriter (release 2.4.3)
       H    -7.68116    8.20047  -17.92304
       O    -8.66002    8.43468  -17.81861
      H1    -9.07162    8.01400  -17.03179
       H    -7.07264    4.50861  -18.50858
       O    -6.31353    4.49940  -17.92965
      H1    -5.56764    4.09701  -18.38570
       H   -11.87858   11.08190  -14.29819
       O   -12.83951   10.78656  -14.44921
      H1   -13.27928   11.44879  -13.90583
       H    -5.58477   10.01715  -13.55861
       O    -5.53416   10.65988  -12.88387
      H1    -6.24669   10.53914  -12.27731
       H    -7.34736    6.22728   -8.12988
       O    -7.88550    6.77892   -7.52909
      H1    -8.79498    6.55649   -7.71327
       H   -10.04231   -0.60578   -9.64651
       O   -10.61233    0.11224   -9.98083
      H1   -11.12333   -0.29939  -10.72089
       H   -10.26009    5.36076   -7.23270
       O   -10.46706    5.48195   -8.17441
      H1   -10.04268    4.73254   -8.67744
       H   -11.83079    7.90742  -18.51433
       O   -11.08123    7.75508  -19.12104
      H1   -10.31115    7.83122  -18.53321
       H   -11.40916   12.60283  -11.07628
       O   -11.66629   11.73285  -10.78334
      H1   -12.64482   11.68851  -10.77554
       H   -15.83529    0.29906  -13.27752
       O   -15.34036    1.13346  -13.12224
      H1   -14.96689    1.46878  -13.97197
       H    -8.07092    8.27058   -8.96948
       O    -8.47362    8.91079   -9.60277
      H1    -9.42990    8.83787   -9.35922
       H   -13.34415    1.79197  -14.78370
       O   -14.03871    2.32619  -15.22273
      H1   -14.34502    3.16854  -14.83577
       H    -4.23168    6.77227  -11.26434
       O    -4.79357    6.06117  -11.64589
      H1    -4.89501    6.15697  -12.59410
       H   -11.53713    6.01250  -19.07919
       O   -11.38412    5.08378  -19.23632
      H1   -11.81344    4.62918  -18.48586
       H    -7.78562   11.55144  -16.50315
       O    -8.22480   10.78928  -16.06576
      H1    -8.53614   10.28919  -16.78656
       H   -13.33329    7.28580  -16.68369
       O   -13.44584    7.96503  -17.35178
      H1   -13.26491    8.78209  -16.90476
       H   -16.11423    2.29648  -12.05220
       O   -16.52744    3.03467  -11.50739
      H1   -17.39043    3.04586  -11.93645
       H    -6.01058    6.59688  -17.57363
       O    -6.09256    7.52982  -17.68061
      H1    -5.69678    7.93274  -16.90823
       H   -14.25300    9.09195  -11.29320
       O   -13.79423    8.26685  -11.60720
      H1   -12.90000    8.51645  -11.73009
       H    -6.33248    4.93629  -15.24465
       O    -5.81142    5.62775  -14.84931
      H1    -4.86120    5.45334  -15.00767
       H   -12.95760   10.16898   -6.86759
       O   -12.98561    9.78291   -7.71204
      H1   -13.66423   10.27898   -8.17344
       H   -10.98054    9.62204  -12.99979
       O   -11.21089    9.30364  -12.14551
      H1   -11.40128   10.12000  -11.61098
       H   -11.51193    6.26288  -13.24922
       O   -10.87468    5.67293  -12.82808
      H1   -10.19671    6.17541  -12.34982
       H   -12.72591   -1.26711  -11.43826
       O   -11.94054   -1.01516  -11.94019
      H1   -12.32468   -0.55140  -12.71586
       H   -13.56742    2.81990   -9.19048
       O   -12.84594    3.38925   -9.49889
      H1   -13.09099    4.30763   -9.59131
       H    -7.88768    0.71139  -11.25060
       O    -8.37700    0.00059  -11.64767
      H1    -9.22876    0.00892  -11.14552
       H    -7.45943    3.43569   -7.80364
       O    -6.49769    3.63438   -7.71673
      H1    -6.39001    4.12910   -6.92141
       H   -17.56393    6.43550  -12.94798
       O   -16.67479    6.12301  -13.20720
      H1   -16.16939    6.91528  -13.43235
       H   -14.42821    7.06056   -9.18648
       O   -15.30863    7.40132   -8.90637
      H1   -15.92883    6.86040   -9.45228
       H   -13.58962    5.89415   -6.53331
       O   -13.46475    4.91337   -6.65564
      H1   -12.78996    4.93145   -7.34645
       H    -7.23199    6.86632  -13.96140
       O    -7.98691    7.55547  -13.93160
      H1    -8.38085    7.43183  -13.05955
       H   -11.46003    3.28090  -10.66289
       O   -10.69066    3.39341  -11.23544
      H1   -10.72220    4.32997  -11.61866
       H    -4.57741    8.54768  -14.75053
       O    -4.96742    9.09946  -15.44784
      H1    -5.86443    8.73725  -15.49213
       H   -10.64148   11.17659  -16.58253
       O   -11.24199   10.52837  -17.03837
      H1   -10.88188    9.60738  -17.02911
       H    -9.97376    2.88890   -9.62452
       O    -9.34135    3.18329   -8.98135
      H1    -9.69803    2.85935   -8.14465
       H   -12.52411    6.65784  -10.43895
       O   -12.69356    6.24956   -9.56254
      H1   -11.80699    5.97044   -9.23520
       H   -18.10914    8.39290  -15.01436
       O   -17.46390    8.11158  -15.72172
      H1   -16.69546    8.00233  -15.22300
       H    -9.91698    4.57188  -14.57074
       O    -9.81903    3.95621  -15.30937
      H1    -9.73109    3.05537  -14.84855
       H   -15.44057    1.98146   -9.88600
       O   -14.93724    1.78567   -9.07036
      H1   -15.37182    2.17268   -8.32444
       H    -5.97126    0.26379  -16.73655
       O    -6.65475    0.20729  -16.07570
      H1    -6.76062    1.09189  -15.70184
       H   -16.80821    5.25330  -10.71157
       O   -17.16289    5.79699  -10.00117
      H1   -17.64863    6.51162  -10.57526
       H    -8.65218    5.33194  -19.81275
       O    -8.53223    4.46354  -19.52711
      H1    -9.28371    4.25256  -18.93581
       H   -15.23739    4.80880  -13.26854
       O   -14.36332    4.32585  -13.34145
      H1   -14.37019    3.76274  -12.55110
       H    -9.31642    1.09727  -13.02396
       O    -9.84604    1.83595  -13.37526
      H1    -9.97600    2.45174  -12.65718
       H    -6.98903    3.54187  -16.51780
       O    -7.23002    3.51663  -15.58733
      H1    -8.22732    3.63080  -15.53140
       H    -9.55289    7.79881  -14.86470
       O   -10.10934    7.95684  -15.67244
      H1   -10.92747    7.53483  -15.30051
       H    -6.19254    5.24879  -10.50123
       O    -6.88296    5.31619   -9.80464
      H1    -6.59438    4.68385   -9.10642
       H   -11.24189    8.88574   -7.54654
       O   -10.33756    8.79535   -7.24070
      H1   -10.41746    8.42785   -6.35781
       H   -14.03975    4.66843  -17.74080
       O   -13.29696    4.67452  -17.09815
      H1   -13.62051    4.00564  -16.44199
       H    -8.29093    6.09332  -10.76715
       O    -8.82428    6.74185  -11.30959
      H1    -8.63702    7.54179  -10.92408
       H   -11.71583    0.16956  -15.12394
       O   -12.06494    0.55565  -14.28686
      H1   -11.36223    1.18493  -13.95554
       H   -14.21713   12.03376  -16.64558
       O   -14.63441   11.20070  -16.39231
      H1   -13.90881   10.86152  -15.88187
       H   -12.58939    5.75765  -15.61793
       O   -12.54933    6.56018  -15.02815
      H1   -13.47977    6.65354  -14.67927
       H   -16.64334    5.06209  -16.25533
       O   -15.99086    4.87158  -15.53155
      H1   -16.50321    5.24132  -14.79390
       H   -14.38771    8.23695  -13.12686
       O   -15.06389    8.34539  -13.83101
      H1   -15.37562    9.26415  -13.79639
       H    -9.37101   11.09942  -14.67970
       O   -10.12998   11.30960  -14.10911
      H1    -9.75291   11.38109  -13.22243
       H    -7.72953    2.59397  -10.06462
       O    -6.98031    2.05231  -10.39543
      H1    -6.88577    2.44256  -11.31182
       H    -6.68631    3.48193  -13.46951
       O    -6.20445    3.11816  -12.71132
      H1    -5.25292    3.18610  -12.89335
       H    -8.27844   12.03685  -11.13476
       O    -7.99039   11.16685  -11.43527
      H1    -8.19146   10.58691  -10.65978
       H   -15.64003    8.96516  -10.05383
       O   -15.54572    9.93437  -10.21217
      H1   -16.35218   10.27602  -10.65115

