180
frame 0 | Written by MDAnalysis XYZWriter (release 2.4.3)
       H     6.97636    3.88060   17.11847
       O     6.33991    4.56359   16.85638
      H1     5.87374    4.76205   17.71094
       H     9.91345    3.05772   20.00470
       O     9.41113    3.45708   19.27350
      H1    10.13109    3.75419   18.66670
       H     4.52416    4.73678   12.36447
       O     4.77920    4.09314   11.70218
      H1     4.39055    3.30714   12.07741
       H     5.55583    8.66749   14.77563
       O     5.63453    7.96194   15.43357
      H1     5.54419    7.12344   14.94698
       H    15.25770   10.04166   18.00046
       O    15.56407   10.50379   18.84027
      H1    16.43673   10.81736   18.46969
       H    14.24443    1.73227   13.02263
       O    14.66819    0.89504   13.34584
      H1    15.47938    1.14342   13.84292
       H     7.14634    2.50770   15.46593
       O     7.92303    2.86439   15.00543
      H1     7.66372    3.00839   14.06936
       H    10.54473   10.51309   11.81305
       O     9.73330   10.35289   12.33996
      H1    10.02467    9.49345   12.71913
       H    12.94611    2.40289   10.60675
       O    12.01614    2.11985   10.49804
      H1    11.98609    1.21323   10.88581
       H    14.80058    6.74736   11.78603
       O    15.00750    6.28987   10.91197
      H1    14.65584    5.38051   11.20436
       H     6.74112    3.30508   11.88436
       O     7.61258    2.98007   12.27337
      H1     7.73910    2.19744   11.76172
       H     8.96221   -0.00207   12.33278
       O     9.05369   -0.99193   12.39691
      H1     8.98189   -1.22440   13.34036
       H     6.79572   11.37506   17.15806
       O     7.48938   11.63582   17.79319
      H1     7.01455   11.38816   18.64541
       H    13.48194    2.28387   16.90866
       O    12.87469    2.49025   16.16582
      H1    12.39580    3.23767   16.57725
       H    11.36184   -2.00793   16.19162
       O    10.59756   -2.01609   16.80832
      H1    10.57331   -2.95882   17.02608
       H    11.65852    8.87606   13.95230
       O    10.88439    8.36208   13.89562
      H1    11.15861    7.42258   14.00763
       H    17.59528    6.07476   12.87681
       O    17.74293    6.30855   13.78609
      H1    17.55473    5.45388   14.20740
       H     9.12267   -1.29248   19.57848
       O     8.87352   -1.25746   18.65215
      H1     9.69696   -1.49317   18.17426
       H    15.47044    3.36490   18.05098
       O    15.81376    4.27961   18.05066
      H1    15.01961    4.69584   17.52978
       H    14.69521    8.11251   18.09547
       O    14.97451    8.23543   17.13081
      H1    14.31306    8.84285   16.72234
       H     4.35157    5.01416   15.15686
       O     3.65556    4.58368   15.72103
      H1     4.17749    4.10352   16.34427
       H    15.83288    8.04610   15.48047
       O    15.97290    8.49298   14.54690
      H1    16.83168    8.04120   14.35545
       H     9.13263   11.26403   13.68309
       O     8.78258   11.82120   14.42465
      H1     9.13029   12.67338   14.08659
       H    11.35586   -0.81274   11.80895
       O    11.69839   -0.79891   10.91682
      H1    12.54891   -1.12094   11.24273
       H    14.21103    6.67855   16.75098
       O    13.83910    5.80249   16.64022
      H1    13.22203    5.70038   17.39446
       H    13.30857    8.78771    9.82762
       O    13.02098    8.87002   10.73247
      H1    12.17715    8.29802   10.72333
       H    17.70707    5.51013   18.41079
       O    18.51996    5.15384   18.13967
      H1    18.38733    4.25429   18.36564
       H     7.32529    8.41903   13.35752
       O     7.92422    7.67887   13.15672
      H1     8.51266    7.78485   13.88524
       H     9.30108    3.69639   11.14074
       O    10.12810    4.11327   10.85422
      H1    10.80856    3.41927   10.78875
       H    14.62723    7.76795   13.61957
       O    13.90534    7.30945   13.19097
      H1    13.48769    8.05571   12.71130
       H    17.22865    1.03205   16.08551
       O    17.03741    0.29546   16.73472
      H1    17.91416    0.00420   17.06956
       H    14.59397    3.64250   12.54784
       O    14.48534    3.53678   11.53103
      H1    15.39555    3.32929   11.30073
       H    10.05717   11.33463   15.46578
       O    10.81783   10.95369   16.07211
      H1    10.19955   10.29027   16.49326
       H    11.54556    0.31697   14.51936
       O    12.38079   -0.08100   14.21399
      H1    13.08350    0.52056   14.49297
       H    15.92102    1.24578   17.63764
       O    15.05815    1.50473   17.97862
      H1    14.75180    0.59925   18.10930
       H     2.61137    7.54515   17.79082
       O     2.86438    8.15464   17.09525
      H1     3.56892    7.68414   16.67552
       H     5.09787    1.31999   16.71079
       O     5.86666    1.20068   16.10508
      H1     6.51111    0.64784   16.54381
       H    13.78963   11.67440   15.87059
       O    13.49970   10.79702   16.27632
      H1    12.53602   10.72355   16.32863
       H    16.97783    2.80901   14.67278
       O    17.01239    1.83744   14.68565
      H1    17.59443    1.77288   13.95817
       H    13.99963   13.09520   19.25253
       O    13.47528   12.34902   19.69392
      H1    14.12206   11.63389   19.44571
       H     9.07642    1.63448    9.76577
       O     8.63177    1.19269   10.51107
      H1     8.09194    0.51497   10.08101
       H    10.50130   14.04561   17.75598
       O    11.19052   13.54404   17.30744
      H1    10.75487   12.77993   16.95020
       H     7.87033   10.04683   15.29788
       O     8.08051    9.14881   15.72784
      H1     7.48201    8.44557   15.46112
       H     8.86629    4.60739   15.00414
       O     9.49445    5.24714   15.23126
      H1     8.94471    6.02941   15.08291
       H    11.29417    5.34065   18.29553
       O    11.35984    4.67514   17.53694
      H1    10.73272    5.06146   16.82198
       H    12.79376   -3.06991   15.01487
       O    12.96096   -2.31452   15.59775
      H1    12.70257   -1.57991   15.01284
       H    13.97727    4.65446   14.37255
       O    14.56216    3.85868   14.26837
      H1    13.90540    3.10905   14.53624
       H    10.66318    6.37545   11.11711
       O    10.82188    7.33097   11.16233
      H1    10.01815    7.67553   10.75182
       H    12.08282   10.91613   13.08050
       O    12.77384   10.41176   13.54731
      H1    12.60890   10.55719   14.45688
       H     8.80568   -1.16175   15.28496
       O     8.35111   -1.98919   15.09561
      H1     8.48795   -2.29112   15.99288
       H     7.92412    6.74498   10.54735
       O     7.89858    7.69005   10.29653
      H1     7.79175    8.17271   11.10646
       H     6.35764    4.99251   15.19465
       O     6.14172    5.53713   14.39149
      H1     6.97234    5.54131   13.84435
       H     4.97495    9.38547   12.82586
       O     5.86816    9.58895   13.11116
      H1     5.72647   10.48901   13.45702
       H    13.41555   -1.72302   17.84152
       O    13.65940   -1.29566   18.64755
      H1    14.58208   -1.56606   18.88524
       H     8.49363    1.98800   18.66898
       O     8.05409    1.28085   18.19581
      H1     8.55646    0.50515   18.50241
       H    10.47100   10.73876   19.02107
       O    10.91465   11.17614   19.80870
      H1    11.60214   11.72119   19.41166
       H     9.49098    0.96987   16.50552
       O     9.51172    0.64294   15.59251
      H1     9.05336    1.38407   15.11778
       H     6.86323    8.08272   17.71297
       O     7.36685    7.29190   18.03633
      H1     6.89102    6.49602   17.61918
       H     9.93335    8.63016   18.29802
       O     9.62991    9.53536   18.21631
      H1     8.74306    9.43718   17.82291
       H    15.93316    4.34830   15.34867
       O    16.83408    4.25677   15.64586
      H1    16.79943    4.29113   16.61932

