180
frame 92 | Written by MDAnalysis XYZWriter (release 2.4.3)
       H   -10.23628   18.00565    7.35447
       O   -10.94646   18.40753    7.94369
      H1   -11.34063   19.07393    7.30398
       H   -19.13557   10.17161    7.74880
       O   -19.77751   10.81845    7.34902
      H1   -19.30179   11.61192    7.47956
       H   -17.19164   11.73048    0.15066
       O   -17.94808   12.29661    0.33075
      H1   -18.70146   11.76342    0.10973
       H   -16.40040   12.15059   13.44845
       O   -16.14525   12.65120   14.28223
      H1   -15.27496   12.90997   13.99124
       H   -17.75742   13.83296    7.38405
       O   -18.64345   13.41609    7.31468
      H1   -18.72001   13.44817    6.35104
       H   -15.39220   15.43213    9.76822
       O   -15.07604   15.03524   10.62075
      H1   -14.26629   14.50198   10.26335
       H   -10.70683   19.05522   10.22011
       O   -10.05909   19.66060   10.64463
      H1    -9.21018   19.51873   10.19741
       H   -15.96873    8.83295   12.11662
       O   -16.28966    8.25685   11.42798
      H1   -15.86746    8.62636   10.69077
       H   -12.26854   13.90472   12.38911
       O   -11.33186   14.21086   12.14379
      H1   -10.95930   14.66004   12.90358
       H   -19.39960   12.09081    4.62524
       O   -19.19420   13.00921    4.53064
      H1   -18.50691   12.94503    3.78433
       H   -18.99826   16.91292   -0.25450
       O   -17.99618   16.88469   -0.25062
      H1   -17.89305   17.58136    0.34499
       H   -16.49218    9.23512    4.36976
       O   -15.74550    9.67148    3.86006
      H1   -16.06943   10.58230    3.79666
       H   -16.98232   11.78691   11.16076
       O   -17.29795   11.35603   11.99005
      H1   -18.07010   10.77942   11.65456
       H   -11.70772   17.71904   -1.44452
       O   -10.80610   17.49485   -1.19541
      H1   -10.82710   16.72497   -1.81704
       H   -16.80101   15.12209   11.37115
       O   -17.75077   15.19655   11.44810
      H1   -18.03834   15.23487   12.37938
       H   -12.88949   17.39752   10.56445
       O   -13.25600   17.94266    9.85938
      H1   -12.68834   17.80138    9.06847
       H    -9.50120   16.94666    5.87891
       O    -9.11997   16.96760    6.78520
      H1    -8.21360   16.93412    6.50518
       H   -11.95415   17.70994    1.87731
       O   -11.02877   17.80482    1.49605
      H1   -11.11014   17.46119    0.59326
       H   -18.60223   16.13580   15.96684
       O   -19.42760   16.53343   16.34724
      H1   -19.43745   16.09228   17.22504
       H   -12.45419   12.46082    9.19349
       O   -13.30075   12.99549    8.81253
      H1   -12.94338   13.44920    8.02600
       H   -10.28706   14.56721    7.58812
       O   -10.27402   14.17016    6.69848
      H1    -9.80526   14.85206    6.22249
       H   -15.41897   16.06392    7.52161
       O   -16.25532   15.89481    8.06814
      H1   -16.68107   16.80553    8.12667
       H   -14.66110   13.18339    7.21175
       O   -15.61036   12.90623    6.97422
      H1   -15.88326   12.52175    7.77985
       H   -14.93722   12.05144    9.63846
       O   -15.81084   11.73208    9.52139
      H1   -15.58330   10.77674    9.29114
       H   -12.84029    9.86264    3.87535
       O   -12.30721   10.47101    4.41130
      H1   -12.95935   10.66542    5.06889
       H   -17.67638   16.50515    3.53272
       O   -18.39631   17.01115    3.11365
      H1   -18.74396   16.39242    2.39564
       H   -14.65481   17.06121   13.76381
       O   -14.48292   16.42929   14.44614
      H1   -15.21984   16.52321   15.08114
       H   -14.64748   14.62705    3.80603
       O   -15.50474   14.68527    3.32192
      H1   -15.24342   15.07109    2.48142
       H   -17.60042   15.68255   -1.44763
       O   -17.25652   14.89524   -1.87158
      H1   -17.34565   14.12317   -1.29778
       H   -16.24597    9.36660    8.22383
       O   -15.30308    9.32174    8.55623
      H1   -14.87906    9.55021    7.71393
       H   -15.97665    8.65198    2.48632
       O   -15.81016    8.24517    1.56480
      H1   -16.06350    7.31589    1.72768
       H   -11.64542   10.86360   10.32666
       O   -11.27108   11.62602    9.90023
      H1   -11.00362   12.19687   10.64120
       H   -15.24955   18.65602    4.15538
       O   -15.06885   17.70993    4.20443
      H1   -14.45050   17.62876    3.49045
       H   -11.39654   16.08271    8.58865
       O   -10.92842   15.33134    8.97545
      H1   -10.16371   15.77150    9.37177
       H   -10.38514   16.78279    3.57476
       O    -9.53041   16.71314    4.03202
      H1    -9.21320   15.90662    3.65311
       H   -17.37195   18.51553   -3.34826
       O   -18.08207   18.73145   -2.63721
      H1   -17.77630   18.11474   -1.91725
       H   -12.53544   14.41524    1.02158
       O   -11.56808   14.10874    1.16575
      H1   -11.68583   13.30525    1.68778
       H   -11.06541   11.41730    3.35009
       O   -10.52713   11.94638    2.74898
      H1    -9.71608   11.38877    2.53526
       H   -15.86580   18.80988   11.89681
       O   -15.64409   19.26667   12.71645
      H1   -14.76199   19.68283   12.68772
       H   -11.94904   15.43040    4.47566
       O   -12.20987   15.53866    3.50192
      H1   -11.52246   15.06449    2.99993
       H   -13.00249   13.70304   14.65048
       O   -13.45958   13.90388   13.80240
      H1   -13.62955   14.85738   13.92844
       H   -14.99525   19.97860    0.52481
       O   -14.78470   19.02619    0.62240
      H1   -14.26029   18.98125   -0.17450
       H   -17.67783    8.26498    6.99697
       O   -17.79339    8.88146    7.75330
      H1   -17.86439    8.27515    8.52913
       H   -19.82460   16.40942    6.31317
       O   -19.78283   16.96848    5.53175
      H1   -18.91411   16.80681    5.13385
       H   -18.15231    7.93702    4.23398
       O   -17.52069    8.10646    4.91560
      H1   -17.01580    7.25778    4.90498
       H   -16.23313   15.35272    5.08389
       O   -17.09046   15.60113    5.43857
      H1   -16.79415   15.84212    6.35041
       H   -19.16343   16.96450    9.61665
       O   -18.62679   17.44160   10.26026
      H1   -18.36037   16.64283   10.79818
       H   -13.93601   19.33497   -1.80983
       O   -13.44987   18.48898   -1.76330
      H1   -14.05275   17.82215   -2.02127
       H   -14.89968   11.37780    6.30267
       O   -14.37679   10.54624    6.21941
      H1   -14.78979   10.18341    5.39189
       H   -18.39280   17.78847    6.54149
       O   -17.66645   18.09873    7.14361
      H1   -18.19777   18.51898    7.87433
       H    -8.44777   19.92640    1.14602
       O    -9.37084   20.02105    1.49532
      H1    -9.81676   19.21645    1.24882
       H   -16.49367   15.41692   16.55564
       O   -16.69535   16.24952   16.07107
      H1   -16.94238   16.96153   16.71799
       H   -14.09481   13.82969   -0.10057
       O   -14.13202   14.61924    0.39748
      H1   -14.48062   15.26460   -0.21821
       H   -15.49442   18.03948    9.94906
       O   -16.23213   18.63062   10.04515
      H1   -17.02019   18.03321   10.16841
       H   -14.24919   15.43749   -2.39561
       O   -14.81110   16.12931   -1.93681
      H1   -15.63621   15.67473   -2.01962
       H   -16.72423   19.10551    1.49708
       O   -17.67894   19.17597    1.65241
      H1   -17.90037   18.45047    2.23851
       H   -13.07889   15.15289    6.46689
       O   -13.01501   14.18241    6.35266
      H1   -12.06833   14.00888    6.19639
       H   -16.44622   13.07699    3.23454
       O   -17.00151   12.30219    3.07492
      H1   -17.18951   12.51519    2.13641
       H   -19.13408   13.19436   13.82388
       O   -18.62071   13.98674   14.09331
      H1   -17.69074   13.70470   14.18578
       H   -14.48246   17.05454    5.83894
       O   -14.07228   16.66059    6.64272
      H1   -13.76662   17.52076    6.98903

