180
frame 5 | Written by MDAnalysis XYZWriter (release 2.4.3)
       H    -3.30092   -3.83665    0.18041
       O    -3.32064   -4.73462    0.46931
      H1    -3.82973   -4.75584    1.27425
       H     5.18111   -5.01551   -2.89579
       O     5.00175   -5.82789   -3.36856
      H1     4.27558   -5.56393   -3.92529
       H     0.72320  -13.03807   -4.84394
       O     1.40716  -12.99516   -4.11161
      H1     0.95456  -13.57174   -3.47528
       H    -1.11337  -12.51928   -8.45791
       O    -1.29648  -12.51730   -9.41534
      H1    -2.22719  -12.93031   -9.43771
       H    -7.33298   -8.33069   -6.74318
       O    -7.58050   -8.69114   -5.88165
      H1    -6.98768   -8.16521   -5.31434
       H    -4.01530   -7.43139   -2.76705
       O    -3.12023   -7.46200   -3.19546
      H1    -2.80733   -6.54458   -3.10907
       H    -0.14150   -2.75706   -6.88371
       O     0.42481   -2.71038   -6.11067
      H1     0.50521   -3.63552   -5.80768
       H     0.01054   -6.28012   -1.06949
       O     0.64811   -5.52007   -1.28573
      H1     0.03330   -4.78548   -1.48656
       H    -5.83049   -5.35656   -2.95074
       O    -5.47687   -5.11077   -2.06237
      H1    -4.56696   -4.86779   -2.25115
       H    -1.79225  -10.92721   -7.61711
       O    -2.03870  -10.07281   -7.94331
      H1    -2.72637   -9.77675   -7.31634
       H    -1.75900  -11.41818   -2.48519
       O    -1.86766  -11.06377   -3.38458
      H1    -2.22978  -10.20229   -3.12606
       H     1.47647  -13.41034   -0.68521
       O     0.87356  -13.78050   -0.05486
      H1     0.77948  -13.10957    0.65250
       H    -1.71611  -14.41139   -3.64613
       O    -2.15633  -14.04051   -4.41976
      H1    -2.37624  -13.11119   -4.10304
       H     1.91648   -4.92184   -2.54135
       O     2.54072   -4.33526   -3.04285
      H1     3.13221   -4.06286   -2.28103
       H     3.64369   -2.67771   -0.87888
       O     3.95034   -3.66697   -0.95365
      H1     4.93220   -3.58411   -0.97389
       H     3.66469  -12.79945   -9.04662
       O     2.75389  -12.65183   -8.78621
      H1     2.83611  -12.19695   -7.93722
       H     3.42881   -8.47139   -7.48030
       O     3.24106   -8.01792   -8.32399
      H1     3.44817   -8.79645   -8.85816
       H     2.92321   -8.43835    1.19737
       O     3.32180   -8.20112    2.08904
      H1     2.55226   -7.80254    2.54315
       H     2.75805   -4.30340   -5.25160
       O     3.20363   -4.59226   -6.10634
      H1     2.50351   -5.17621   -6.47658
       H    -2.07533   -5.02899  -11.03867
       O    -2.25917   -5.45588  -10.19325
      H1    -2.72398   -4.73483   -9.76848
       H     5.52288   -8.73282   -5.91023
       O     4.81295   -9.19047   -5.44105
      H1     4.99136   -8.82370   -4.53008
       H     1.90128   -2.23838   -7.32236
       O     2.88817   -2.32481   -7.39237
      H1     3.03319   -3.19599   -6.93117
       H     2.79702   -4.70832  -10.73553
       O     2.11567   -5.39793  -11.04467
      H1     1.69683   -5.58574  -10.20753
       H    -0.63194  -11.26231   -5.25309
       O    -0.04589  -11.44776   -6.02099
      H1     0.55545  -10.65773   -6.10817
       H    -2.48831   -7.17904   -1.22956
       O    -1.84075   -7.03222   -0.59353
      H1    -2.23440   -6.29831   -0.11479
       H    -1.93291  -10.81761  -10.17120
       O    -2.67962  -10.56643  -10.68849
      H1    -3.25864  -10.07800  -10.04704
       H     0.28483   -9.19235   -0.33938
       O     0.55071   -9.23819   -1.26850
      H1     1.10513  -10.04684   -1.24670
       H     0.01074   -8.19680   -3.23780
       O    -0.35245   -7.79764   -4.05469
      H1    -1.32773   -7.69703   -3.88340
       H     4.10448   -6.53252   -1.74831
       O     3.81288   -7.13563   -1.03987
      H1     4.02387   -6.66624   -0.26178
       H    -3.22202   -1.54936   -4.57742
       O    -3.29904   -2.45380   -4.91043
      H1    -3.91929   -2.36186   -5.61011
       H    -2.00621  -12.59587    0.09454
       O    -1.41812  -12.59939   -0.69893
      H1    -0.70181  -13.22744   -0.48534
       H     0.67043   -9.09140   -7.10405
       O     1.08045   -9.03275   -6.21799
      H1     0.35183   -8.68290   -5.68143
       H    -1.89634   -3.05104   -7.56934
       O    -1.23407   -2.66149   -8.14988
      H1    -1.41030   -1.71048   -8.05409
       H    -4.20450   -8.27198   -8.14261
       O    -4.57430   -9.14776   -8.27446
      H1    -5.39592   -9.05373   -8.73981
       H     1.57523   -8.31871   -8.83104
       O     0.58590   -8.30830   -8.99092
      H1     0.56459   -8.78912   -9.83624
       H    -3.51255  -11.71807   -5.95721
       O    -3.44153  -12.46778   -6.54595
      H1    -4.43230  -12.62030   -6.69360
       H     3.79331  -10.68953   -5.71459
       O     3.45451  -11.60300   -5.90772
      H1     2.56428  -11.59668   -5.62508
       H    -0.43121   -3.78597    1.98460
       O    -1.03477   -4.33839    2.54529
      H1    -1.74201   -4.39316    1.89656
       H    -6.42396   -5.13475   -8.09879
       O    -5.88911   -5.82744   -8.53208
      H1    -5.15263   -5.88191   -7.89342
       H    -2.43877   -3.99327   -5.57401
       O    -2.43445   -4.71327   -6.23404
      H1    -1.56849   -5.08595   -6.10595
       H    -3.31008   -6.11330   -6.44992
       O    -3.83794   -6.94500   -6.50125
      H1    -3.63479   -7.26184   -5.58398
       H    -2.26148   -4.00676   -2.19147
       O    -2.92044   -4.33562   -2.85210
      H1    -3.12952   -3.58551   -3.42499
       H     0.36042   -5.84370   -6.91411
       O     0.27817   -5.69445   -5.94734
      H1     0.47142   -6.54175   -5.56369
       H     1.34124   -3.42804    1.18613
       O     0.60482   -2.80541    1.04078
      H1     0.83174   -1.94395    1.48866
       H    -5.52512  -10.76282   -5.21104
       O    -4.65265  -10.32609   -5.40762
      H1    -4.95040   -9.70848   -6.10729
       H    -0.58529  -11.67193    0.36888
       O    -0.08808  -11.19650    1.05014
      H1    -0.52699  -11.41362    1.91536
       H    -0.56178   -5.37554   -9.20780
       O     0.31476   -5.68212   -8.81670
      H1     0.17230   -6.66759   -8.84294
       H     1.61099   -2.59485   -3.25768
       O     0.76876   -2.16435   -3.40635
      H1     0.62562   -2.28494   -4.36559
       H     1.82469   -5.37968    0.25954
       O     2.16469   -5.12528    1.13033
      H1     3.06401   -4.78389    0.90573
       H     4.19528   -6.37607   -8.59472
       O     4.76781   -5.57872   -8.54422
      H1     4.15335   -5.02930   -9.04136
       H     4.70004   -8.20882   -2.17495
       O     4.91779   -8.88171   -2.85757
      H1     4.04950   -9.40806   -2.76920
       H    -5.80175  -10.03018   -2.88134
       O    -5.24139   -9.28650   -3.06825
      H1    -4.94815   -9.40260   -3.98676
       H     5.27760   -9.96020    0.11776
       O     5.95275   -9.80128   -0.51921
      H1     5.53612   -9.50686   -1.35048
       H     5.13606  -11.89879   -4.16361
       O     6.10919  -11.92317   -4.24340
      H1     6.23263  -12.05087   -5.22082
       H    -7.72100   -5.91655   -3.80455
       O    -7.00492   -5.76175   -4.41148
      H1    -7.24890   -4.93783   -4.88047
       H    -4.62736   -9.54660   -0.72691
       O    -4.87801  -10.06489    0.04020
      H1    -5.11415   -9.45194    0.71371
       H     3.81527  -11.53488   -2.52292
       O     3.10574  -10.87329   -2.71226
      H1     2.49928  -11.39000   -3.28419
       H    -1.17967   -7.53684    2.46024
       O    -1.66336   -6.99691    3.11190
      H1    -1.00641   -6.27721    3.29663
       H    -0.51594   -9.46215    1.33042
       O    -0.35179   -8.51078    1.26258
      H1    -0.86487   -8.32556    0.42692
       H    -0.24148   -2.97236   -2.11229
       O    -0.88877   -3.30670   -1.46704
      H1    -0.95920   -2.56672   -0.81661

