180
frame 4 | Written by MDAnalysis XYZWriter (release 2.4.3)
       H     4.40701    7.40714  -13.67691
       O     4.84670    7.81666  -12.90045
      H1     4.29613    8.54227  -12.54374
       H     0.22455   16.30083  -13.18418
       O     0.64089   16.94067  -12.71830
      H1     1.24949   17.24801  -13.38546
       H     4.16518   16.90730  -17.88680
       O     4.28203   16.36069  -18.68576
      H1     3.39213   16.63528  -19.05336
       H     2.68914   10.72590  -12.33374
       O     3.54828   10.30195  -12.19826
      H1     3.67975   10.38949  -11.22344
       H    -3.79029   17.71517  -11.57202
       O    -4.34690   17.69113  -12.34043
      H1    -4.11219   16.89558  -12.78750
       H     2.73419   11.35537  -19.08501
       O     2.36335   12.18324  -19.38701
      H1     3.13836   12.72039  -19.37823
       H    -3.23506   12.37846   -7.55087
       O    -2.91967   11.91691   -8.38750
      H1    -1.96892   12.09202   -8.33989
       H    -1.71565   15.66413  -14.93920
       O    -1.10083   14.93442  -15.15569
      H1    -1.53399   14.13477  -14.89641
       H    -2.55443    8.09234  -12.10153
       O    -1.67505    8.27832  -11.77314
      H1    -1.79586    9.15144  -11.33543
       H     6.87975   18.98197  -14.34162
       O     5.96500   18.63601  -13.95588
      H1     5.54536   19.37479  -14.40849
       H     1.61105    8.57894   -9.63738
       O     0.66015    8.43238   -9.52861
      H1     0.57816    7.70465  -10.13757
       H     2.03439   16.61462  -11.66274
       O     2.87790   16.72747  -11.09761
      H1     2.79937   17.68238  -10.99133
       H    -1.92955   18.05057  -17.39489
       O    -2.60940   18.77034  -17.41460
      H1    -2.24358   19.38437  -16.77408
       H    -4.06531   14.86840  -11.92979
       O    -4.94939   14.48150  -11.99913
      H1    -5.11512   14.58884  -12.94301
       H     1.68659   13.31529  -18.09863
       O     1.45419   14.05831  -17.48084
      H1     2.33496   14.23759  -17.17115
       H     3.84181   11.28690  -16.66084
       O     3.08237   11.07069  -16.16110
      H1     2.45042   10.73540  -16.76487
       H     1.67456   12.03404  -15.14294
       O     0.83067   12.51402  -14.92807
      H1     0.73503   12.95451  -15.73417
       H     0.87862   13.96331   -6.25208
       O     0.36691   14.46506   -6.93117
      H1    -0.50543   14.50460   -6.50679
       H     0.94381   10.25972  -12.52153
       O     0.72975   10.55564  -11.62360
      H1     0.80227    9.79298  -11.04962
       H     0.17547   12.18722   -9.08358
       O     0.00501   12.05356   -8.13700
      H1     0.13905   12.91315   -7.80323
       H    -3.77446   16.33002   -8.49087
       O    -3.23950   15.49659   -8.60514
      H1    -3.91577   14.94013   -8.96537
       H     4.68355   10.69938   -7.42225
       O     5.57785   10.60526   -6.95511
      H1     5.75491    9.67295   -7.20214
       H     2.51541   19.01314  -16.95096
       O     1.69473   19.51625  -17.00483
      H1     0.99282   18.83591  -17.03868
       H    -2.89276   14.89400   -7.14003
       O    -2.89645   14.44269   -6.26728
      H1    -3.43842   14.97227   -5.68423
       H     4.91283   17.55973   -7.33659
       O     4.06988   17.93934   -7.07532
      H1     3.44708   17.69491   -7.76088
       H     1.32148    9.08605  -15.22819
       O     2.14849    8.68667  -15.07895
      H1     2.76965    9.38669  -15.18027
       H     3.84548   11.82662   -9.87714
       O     4.31908   11.00992   -9.70825
      H1     5.27961   11.27643   -9.78162
       H     0.25882   14.56466  -18.54860
       O    -0.24276   15.06289  -19.30710
      H1    -1.15084   14.89943  -18.93606
       H    -4.28295   13.21418  -14.76183
       O    -4.33423   14.10495  -15.07509
      H1    -4.72550   13.98298  -15.94385
       H     0.47168   13.50447  -12.17872
       O     1.20245   13.92353  -12.72413
      H1     0.91269   13.60523  -13.61603
       H     4.26791    7.89799   -9.10058
       O     3.45978    8.39573   -9.18306
      H1     3.86398    9.31813   -9.18525
       H    -1.25243   15.80580  -11.56186
       O    -2.13767   15.99889  -11.37576
      H1    -2.15269   15.98805  -10.38587
       H    -1.06301   10.19729  -14.39156
       O    -0.57428    9.45927  -14.04514
      H1    -1.01740    9.17731  -13.22477
       H    -1.49829   12.31425  -11.44668
       O    -1.17271   13.21617  -11.24747
      H1    -2.05509   13.55998  -11.04091
       H    -3.48253   10.20823   -8.99066
       O    -3.85500    9.33040   -8.86294
      H1    -4.45069    9.30530   -9.65818
       H     4.75469   12.25535  -18.65060
       O     4.93281   11.81651  -17.82072
      H1     4.70247   12.55051  -17.21785
       H     2.61064   19.27638  -14.48196
       O     2.96541   18.54211  -13.97682
      H1     3.25077   19.04730  -13.14258
       H    -3.59525   11.29187  -13.39207
       O    -4.06636   11.35345  -14.21559
      H1    -4.09793   10.45938  -14.51930
       H    -1.20689    7.56762  -16.20347
       O    -1.43645    7.13068  -15.38124
      H1    -1.19606    7.84225  -14.82001
       H     5.29371   14.73563   -8.23380
       O     6.16503   15.12975   -8.07072
      H1     6.02938   15.09834   -7.07158
       H     8.24810   16.32951  -13.45684
       O     8.17034   16.22658  -12.50061
      H1     7.42629   15.60365  -12.29727
       H     4.24133   13.72783  -15.32184
       O     4.24577   13.89036  -16.25888
      H1     5.15783   14.20812  -16.44117
       H    -3.75454   11.11242  -11.18766
       O    -2.76344   11.00477  -11.29661
      H1    -2.41096   11.32154  -10.45716
       H     0.81143    9.39421  -17.93877
       O     0.62790   10.04203  -17.21261
      H1     0.15157   10.76347  -17.70404
       H     4.85264   16.59087  -15.89095
       O     4.15857   17.25296  -16.04672
      H1     3.79640   17.37233  -15.14229
       H     5.55423   18.65696  -10.52379
       O     5.68405   19.44582   -9.97511
      H1     6.31136   19.97569  -10.52044
       H     5.89800   14.15307  -12.40340
       O     6.09473   14.69988  -11.58136
      H1     5.76324   15.57898  -11.78543
       H     1.29788    6.87955  -12.30105
       O     1.55055    7.81928  -12.37542
      H1     1.34329    8.02396  -13.27415
       H     2.40674   13.54395  -11.20057
       O     3.03324   13.39356  -10.51590
      H1     3.77329   13.99167  -10.64723
       H    -3.87610   16.18674  -15.05647
       O    -3.15591   16.66701  -14.58984
      H1    -3.33912   17.54935  -14.95355
       H     3.34012   13.47568   -7.65079
       O     3.72562   14.34903   -7.52619
      H1     2.93478   14.89356   -7.72829
       H    -3.23072   14.37520  -17.62111
       O    -2.28379   14.27000  -17.80416
      H1    -1.82073   14.60014  -17.03628
       H     6.87045   15.21125  -17.77693
       O     6.47791   15.23102  -16.90275
      H1     7.06874   14.61585  -16.45911
       H     4.59661   17.02684  -11.83368
       O     5.50906   17.22127  -11.66013
      H1     5.81786   17.62507  -12.52600
       H     0.02049   16.74569  -17.95083
       O    -0.06630   16.97881  -16.99856
      H1     0.13637   16.11421  -16.60948
       H    -0.29262   19.15979   -7.98179
       O    -0.02313   18.45689   -7.34158
      H1     0.62677   17.87770   -7.79450
       H     2.20478   12.10243   -6.32856
       O     2.77891   11.56829   -6.92737
      H1     2.70181   10.63641   -6.54844
       H     1.18581   16.06334   -8.19895
       O     1.87278   16.63210   -8.50823
      H1     2.08166   16.38910   -9.42573
       H     5.26167   10.84934  -12.86365
       O     6.16050   11.28845  -12.96276
      H1     6.48658   10.97804  -13.82642
       H     0.09665   11.28842   -6.48472
       O    -0.05106   10.74385   -5.68538
      H1    -0.84860   11.16782   -5.31868

