180
frame 8 | Written by MDAnalysis XYZWriter (release 2.4.3)
       H    18.16016  -10.51770   13.29210
       O    18.45474  -11.31650   12.77613
      H1    18.72641  -11.93114   13.50357
       H     8.17651  -12.08781    6.24679
       O     8.68570  -12.83964    6.64027
      H1     8.19765  -13.15562    7.39398
       H    14.97069  -11.33827   12.63360
       O    14.51043  -12.13164   12.73328
      H1    13.85108  -11.89354   13.45484
       H    12.10407   -6.43965    9.20052
       O    11.19496   -6.49505    9.58906
      H1    11.08712   -5.71304   10.17895
       H    12.22684  -15.38515   11.74960
       O    11.97075  -15.16718   10.85744
      H1    11.20486  -15.73825   10.62147
       H     5.23452   -8.29002    9.92708
       O     5.51040   -8.46265   10.86330
      H1     6.08705   -9.25600   10.78111
       H     8.66037  -13.44637   13.08006
       O     9.07250  -14.28459   13.37389
      H1     8.65038  -14.56485   14.21766
       H     8.56339   -9.00886    7.12764
       O     8.28160   -8.54571    6.37420
      H1     8.92422   -7.90157    6.23093
       H     7.37336  -10.93329   10.82737
       O     6.79757  -10.76242   10.04924
      H1     7.39079  -10.43871    9.33652
       H     5.29069   -7.52059    7.45172
       O     6.04489   -7.62871    8.06009
      H1     6.77118   -8.08592    7.59205
       H    12.10880  -14.33009   14.20043
       O    11.37054  -13.73760   14.48240
      H1    10.53880  -14.04851   14.11407
       H    14.12583   -6.32840    9.54040
       O    13.80161   -6.71344    8.68713
      H1    13.85069   -6.01433    8.03264
       H    10.65004  -11.97564   13.96469
       O    10.84493  -11.05567   14.05831
      H1    10.71983  -10.63113   13.18571
       H    11.62845   -9.11306    5.81393
       O    11.92997   -9.94033    6.18436
      H1    12.71579   -9.59805    6.63268
       H     4.91719  -13.96251   12.55664
       O     5.77529  -13.92754   12.97595
      H1     6.41174  -14.37337   12.38663
       H    17.82097  -11.80300   11.00972
       O    17.40796  -11.59276   10.21285
      H1    17.82641  -12.21876    9.61544
       H    10.02987  -16.10800   13.51391
       O    10.60583  -16.82057   13.54803
      H1    10.33000  -17.57140   13.02148
       H    12.49098  -11.61202   15.31595
       O    13.40381  -11.40459   15.45873
      H1    13.44869  -10.54000   15.89032
       H    15.77372  -11.55789    9.28723
       O    15.02919  -11.55424    8.66255
      H1    14.41705  -12.15467    9.06445
       H     8.56668   -8.40188   13.96187
       O     9.15213   -7.69638   13.55170
      H1     9.15995   -7.90276   12.61235
       H    12.67289  -11.21912    3.40366
       O    11.89950  -10.62937    3.38947
      H1    11.69921  -10.53084    4.30139
       H    11.39209   -5.97505   14.44408
       O    11.54377   -6.43333   13.63349
      H1    10.87741   -7.11581   13.48174
       H    10.46340  -10.74814   16.08325
       O    10.42761  -10.44648   17.01744
      H1    10.25838  -11.24203   17.54368
       H    11.40291   -9.40862   18.21045
       O    11.64122   -8.72149   18.89431
      H1    11.07084   -8.97057   19.61792
       H    14.22130   -8.15479    7.78636
       O    14.15631   -9.04965    7.41561
      H1    14.03491   -9.73436    8.09025
       H     5.62620  -12.24991    9.57722
       O     4.98098  -12.95973    9.41910
      H1     5.52648  -13.71985    9.14135
       H     7.60942   -6.55881    8.30564
       O     8.14048   -5.80850    8.69230
      H1     9.06211   -5.92487    8.46125
       H    13.98827   -8.11180   15.21133
       O    14.12660   -7.84049   14.29315
      H1    13.76196   -6.98396   14.11720
       H     7.11660  -16.03645   11.27130
       O     7.63252  -15.22839   11.20805
      H1     8.03629  -15.12246   12.07247
       H     6.45893   -7.19770   11.06114
       O     6.84858   -6.31441   11.17711
      H1     7.32814   -6.12456   10.33676
       H    16.89528  -13.38590   15.19504
       O    17.22065  -13.73347   14.32787
      H1    16.55295  -13.37628   13.70543
       H    11.78563  -10.95421   10.46968
       O    11.73929  -10.39805   11.25716
      H1    12.63104  -10.08589   11.56189
       H     9.79478  -16.53052    9.01749
       O     9.84359  -16.72552    9.99476
      H1     9.10192  -16.22653   10.33416
       H    10.43386   -9.13753   10.88750
       O     9.76063   -8.47122   10.71654
      H1    10.16994   -7.75752   10.20623
       H    15.07181  -13.02693    7.36811
       O    14.77781  -13.85632    6.97455
      H1    15.04152  -14.59258    7.60055
       H    13.96465  -15.64600   13.87830
       O    13.43813  -15.05492   13.30340
      H1    13.99459  -14.18589   13.06346
       H    14.49518   -9.45451   17.34748
       O    13.78103   -9.14663   16.81564
      H1    13.14684   -8.74732   17.42021
       H     7.82327  -11.34969   13.49192
       O     7.58020  -11.90441   12.72092
      H1     6.74947  -12.42686   12.93516
       H    13.30280  -13.65778   17.97170
       O    13.58020  -12.75707   17.77545
      H1    13.38411  -12.50508   16.86544
       H    11.97393  -14.39266    8.89834
       O    11.82200  -14.12139    8.01095
      H1    12.69787  -14.03592    7.61201
       H    11.62159   -6.88115    5.78449
       O    11.94185   -7.40920    5.00344
      H1    12.72828   -7.09086    4.55526
       H    13.59157   -6.70025   11.82197
       O    14.38767   -6.16265   11.68986
      H1    14.26848   -5.38142   12.27835
       H    13.99712   -8.64503   12.58774
       O    14.07187   -9.19854   11.82197
      H1    14.96063   -9.07387   11.53791
       H    12.95500  -16.61192   10.06374
       O    13.58850  -17.17999    9.62631
      H1    13.15906  -17.87970    9.04953
       H    13.10095  -14.01020   10.56381
       O    13.78529  -13.29581   10.41125
      H1    14.00451  -12.93544   11.25489
       H    15.85332  -13.76213   11.41448
       O    16.61913  -14.28569   11.63437
      H1    16.30920  -14.98189   12.21086
       H    17.52958   -8.43622   14.02084
       O    16.95019   -9.19460   14.17733
      H1    16.05988   -8.84665   14.01408
       H    11.04348   -4.79378    6.44247
       O    10.72130   -5.59196    6.91393
      H1    11.10741   -5.51523    7.80486
       H     8.24610   -8.01299   17.64697
       O     8.26076   -8.91063   17.28901
      H1     9.10704   -9.37737   17.24420
       H     7.91618   -9.37659   15.46375
       O     7.73231   -9.74515   14.58233
      H1     6.77782   -9.89052   14.53788
       H    17.78175   -6.30883   10.57238
       O    17.03183   -5.73179   10.72959
      H1    16.49158   -6.02029   11.47768
       H    15.76643   -8.67111    6.24426
       O    16.13001   -8.07361    5.59812
      H1    17.07109   -8.16109    5.83093
       H     7.19599  -15.09359    8.30300
       O     7.28284  -14.18515    8.57308
      H1     7.23610  -14.17975    9.49124
       H     6.46537   -6.76305   14.36674
       O     7.04113   -6.40714   15.04847
      H1     7.86744   -6.80185   14.79203
       H    16.53179  -15.25902    9.41782
       O    15.73352  -15.46311    8.99801
      H1    15.21574  -16.10234    9.46749
       H    11.88751   -3.82073   10.53893
       O    12.76119   -3.54872   10.13202
      H1    13.37360   -3.41754   10.81769
       H    17.06699   -9.72239   10.45788
       O    16.68014   -8.90203   10.76883
      H1    16.34560   -8.43327    9.99470
       H     9.57052   -4.08800   11.25440
       O    10.36939   -4.65556   11.35165
      H1    10.35950   -5.14222   12.17346
       H    11.51100  -12.31386    8.44515
       O    11.29065  -11.40500    8.48906
      H1    11.39117  -10.94489    7.66770
       H     9.30718   -9.44962    9.30762
       O     9.00093   -9.94586    8.53757
      H1     9.63376  -10.65788    8.41513

