180
frame 10 | Written by MDAnalysis XYZWriter (release 2.4.3)
       H    11.11016   10.61827  -16.48666
       O    11.23907   11.64777  -16.59068
      H1    12.08769   11.82402  -16.25177
       H     9.14380   11.18360   -9.70374
       O     9.10370   11.84428  -10.37210
      H1     8.94172   11.35137  -11.15835
       H     6.21590   12.77586  -12.02952
       O     5.82051   13.56728  -11.61313
      H1     5.04762   13.81392  -12.16449
       H    15.89988   10.26928   -7.46856
       O    15.99836   11.21049   -7.33232
      H1    15.59180   11.44246   -8.18202
       H     7.59841   10.07280  -15.98074
       O     8.08450   10.31781  -15.16413
      H1     8.33860   11.26138  -15.31799
       H    15.73416   14.39238  -14.49395
       O    15.07122   14.47898  -13.78436
      H1    14.24047   14.72711  -14.30138
       H     8.71791   17.10948  -15.74412
       O     9.23203   17.36119  -16.50846
      H1     9.30136   18.29451  -16.42170
       H    11.95264   15.72692  -19.17514
       O    11.39908   15.15538  -18.57812
      H1    10.63829   15.81215  -18.40404
       H    18.45675   15.51895  -16.62457
       O    18.67598   16.26458  -15.97777
      H1    17.86029   16.43081  -15.48989
       H    18.93546   12.03354  -15.67395
       O    19.35544   12.78915  -15.27956
      H1    19.84549   13.21788  -16.00447
       H    15.09345    7.69178   -9.39700
       O    15.91704    7.16764   -9.36380
      H1    16.34542    7.41549  -10.18109
       H    15.99174   17.57535  -16.25177
       O    16.44000   17.75645  -15.40578
      H1    16.30999   18.71063  -15.53826
       H    12.19271    9.07544  -13.41286
       O    11.99846    8.43406  -14.07485
      H1    12.66099    7.67992  -13.98240
       H    18.17018   13.92628  -18.93967
       O    17.80125   14.54351  -18.28250
      H1    17.40859   13.99474  -17.62437
       H    12.84690   15.09834  -17.22291
       O    13.46809   14.83776  -16.53992
      H1    13.73338   13.94277  -16.80657
       H     9.68449   18.17920  -11.28986
       O     9.79037   19.11860  -11.52789
      H1    10.22989   19.10441  -12.41270
       H    17.89592    9.89867  -16.17478
       O    17.78782   10.51538  -15.39392
      H1    17.89437    9.88615  -14.66721
       H    16.53737    6.90610  -14.85844
       O    17.46224    6.52770  -14.92249
      H1    17.85513    7.14458  -14.24719
       H    18.39353   18.60663  -13.65118
       O    18.27668   18.65778  -12.67389
      H1    17.43779   18.11503  -12.58206
       H     9.43789   13.47102  -14.67176
       O     9.24947   12.71627  -15.26725
      H1    10.07679   12.55751  -15.70762
       H    12.83844   12.70680   -8.85026
       O    12.09024   12.77824   -8.21557
      H1    11.63099   13.53819   -8.62478
       H    17.52069   13.12699  -15.47750
       O    16.74961   13.56488  -15.93761
      H1    16.19550   12.77656  -16.13649
       H     8.38444    6.68849  -17.89748
       O     8.03728    7.48857  -17.50477
      H1     8.79747    8.04605  -17.44685
       H    10.46744   16.48385   -8.31947
       O    10.72988   15.55592   -8.35621
      H1    10.34580   15.18208   -7.46456
       H    15.74013   10.50533  -14.56098
       O    15.04992   10.60380  -13.92589
      H1    15.48748   11.07737  -13.23367
       H    15.16765    5.14794  -12.80200
       O    14.44228    5.77892  -12.71852
      H1    13.87231    5.62523  -13.49902
       H    18.86591    9.27907  -17.98274
       O    18.27350    8.71246  -17.39432
      H1    18.74839    7.89490  -17.13285
       H    14.03903   11.66046  -17.91860
       O    14.55765   12.42228  -17.59749
      H1    15.32671   12.42967  -18.15477
       H     9.73723    8.00580   -8.32944
       O     9.90583    8.77391   -8.82874
      H1    10.74330    9.04694   -8.47689
       H     9.43851    8.22846  -12.45454
       O     9.97318    7.48407  -12.77406
      H1    10.64233    7.97677  -13.25704
       H    11.64909   15.29818  -15.61946
       O    10.86896   15.22738  -15.03695
      H1    10.44336   16.06105  -15.22129
       H    15.62330   16.25827  -12.87832
       O    15.83488   17.22077  -12.71630
      H1    15.89657   17.60084  -13.57202
       H    16.77725   12.61916  -11.92282
       O    15.81749   12.37255  -12.06519
      H1    15.56695   13.04694  -12.79896
       H    13.45509    9.45533  -10.41146
       O    14.25185    9.39942   -9.83958
      H1    13.73658    9.01576   -9.07451
       H    11.13701    8.75469  -15.76542
       O    10.43820    9.10513  -16.37569
      H1     9.64750    9.33298  -15.86675
       H    17.44460   17.10867   -9.61637
       O    17.32684   16.36311  -10.22818
      H1    16.73392   16.66629  -10.88609
       H    14.92553    8.66561  -14.40077
       O    14.79536    7.83751  -14.82695
      H1    14.63862    8.15255  -15.72729
       H     7.45400    9.40664  -11.85226
       O     7.91459    8.64458  -11.49411
      H1     7.68043    8.62152  -10.55956
       H    14.11536    8.83873  -18.31348
       O    14.38957    8.15990  -17.63236
      H1    15.26082    7.89255  -17.95631
       H     6.16555   13.24221  -18.61804
       O     6.37998   12.75991  -17.83356
      H1     6.99678   13.33373  -17.40342
       H    18.98989    8.66997  -12.82340
       O    18.22963    8.72015  -13.38397
      H1    17.52549    8.65562  -12.69918
       H    10.65166   12.15983  -11.26731
       O    11.54033   12.41966  -11.58052
      H1    11.56648   13.38934  -11.60260
       H    10.89244   18.48826  -14.56524
       O    10.85117   19.33068  -14.04358
      H1    11.64314   19.83573  -14.24319
       H    10.73875   16.00346  -11.82900
       O    11.41134   15.26706  -11.97487
      H1    11.56873   15.41415  -12.93249
       H     8.13823   16.51447  -12.54437
       O     8.58068   16.43229  -11.67574
      H1     8.83438   15.48007  -11.74174
       H    15.13699    8.90647  -11.42556
       O    15.87328    8.35251  -11.80037
      H1    15.35224    7.67962  -12.19674
       H     9.87041   12.38755   -8.24920
       O     9.32422   12.04222   -7.46680
      H1     8.41019   12.01250   -7.84060
       H     7.47875   15.91110  -14.95908
       O     7.75703   16.69708  -14.40196
      H1     6.83902   17.05434  -14.19535
       H    13.52009   10.33862  -12.51805
       O    12.87911    9.94384  -12.00853
      H1    12.38816   10.65629  -11.66676
       H    12.33150   15.92777   -7.64606
       O    12.97560   16.54626   -7.33867
      H1    13.40814   16.66332   -8.20397
       H    14.89875   12.25741  -10.64368
       O    14.62954   12.02789   -9.70744
      H1    14.48992   11.07866   -9.66352
       H    13.97466   17.75769  -17.42434
       O    14.73665   17.15245  -17.51205
      H1    14.29240   16.30941  -17.28113
       H     8.14899   14.80937  -17.70835
       O     7.95626   14.75121  -16.79426
      H1     8.68276   14.18439  -16.49758
       H    17.88401   14.33963  -10.08442
       O    18.21208   13.42352  -10.10434
      H1    19.02232   13.54748  -10.61468
       H    10.43462   13.70323  -18.90687
       O     9.95211   12.85769  -18.94775
      H1    10.68712   12.23083  -18.84498
       H    11.99313   10.45910  -19.07274
       O    12.97140   10.51132  -18.91915
      H1    13.22152   10.76442  -19.80620
       H    12.07152   18.22818  -17.01767
       O    12.49424   17.83840  -16.21191
      H1    12.89438   18.61943  -15.83936
       H     5.57186   10.78756  -13.14205
       O     6.51601   10.93524  -12.91006
      H1     6.94450   10.78291  -13.79638
       H    14.39602   17.24153  -10.65056
       O    13.85595   17.45245   -9.86267
      H1    14.57023   17.91933   -9.40659
       H    13.74755   11.89474  -14.35596
       O    13.07506   12.56551  -14.22515
      H1    12.72305   12.37908  -13.35180

