180
frame 5 | Written by MDAnalysis XYZWriter (release 2.4.3)
       H     6.87737    4.21615   10.95877
       O     6.11005    3.61056   11.05271
      H1     6.46607    2.78468   11.35172
       H     2.98602    3.75621    9.69093
       O     3.44938    4.05105   10.46552
      H1     4.31781    3.74565   10.53894
       H     9.11010    3.83853   16.78037
       O     8.43171    3.64125   16.08756
      H1     8.86914    3.95718   15.32107
       H     3.90811   -1.91018   13.35433
       O     4.35804   -2.74951   13.47928
      H1     3.72832   -3.30118   13.94272
       H     7.42226   -2.34983   11.23324
       O     7.33397   -1.54502   10.70350
      H1     6.69511   -1.79681   10.04223
       H     5.33774    5.13125   18.45443
       O     5.11058    6.04866   18.73893
      H1     4.63775    6.20782   17.92894
       H    -0.41081    3.90659   13.24734
       O    -0.86302    4.02999   14.06225
      H1    -0.65447    3.39120   14.75341
       H     4.72815   -2.58577    8.40008
       O     5.14912   -2.33977    9.24332
      H1     4.70765   -1.45497    9.42934
       H     0.06012   -1.63178   17.83051
       O     0.36352   -2.10781   17.08542
      H1     1.09205   -2.66309   17.33901
       H     3.16719    6.03524   16.40211
       O     3.89966    6.69312   16.40454
      H1     3.44586    7.50558   16.33917
       H    -0.46733   -0.94208   13.29661
       O    -1.28874   -0.98203   12.72022
      H1    -1.64541   -0.11972   12.83089
       H     5.29072   -3.02643   16.16337
       O     6.01889   -2.87467   15.54214
      H1     5.64731   -2.68003   14.63272
       H     5.15951    3.93490   14.88989
       O     5.15652    2.99567   14.59934
      H1     4.44309    2.65492   15.12624
       H     0.22042    5.94403    9.40628
       O    -0.39284    5.56367   10.05869
      H1    -0.51005    6.33884   10.71244
       H     4.67139   -1.07704   17.23755
       O     4.67395   -0.44900   16.49370
      H1     5.35550   -0.88018   15.95013
       H    -0.11203    0.85585   15.29963
       O    -0.12477    1.82979   15.52616
      H1    -0.54310    1.66626   16.35216
       H     3.51877    0.33464   10.25489
       O     3.98214    0.00290    9.49317
      H1     4.58210    0.71209    9.25452
       H     0.21413   -3.82326   14.46182
       O    -0.75328   -3.60630   14.28703
      H1    -0.79008   -2.68814   14.15353
       H     6.98511    0.18831    6.48604
       O     7.19423    0.96683    7.02662
      H1     7.67975    0.58502    7.77288
       H     5.01451    6.07083   15.20831
       O     5.61659    5.64461   14.59649
      H1     5.16260    5.74801   13.77115
       H     3.28121    0.65172   13.77079
       O     3.15351   -0.25767   14.15223
      H1     3.70082   -0.28718   14.99377
       H     6.86911    6.21622    7.73825
       O     6.30065    5.47675    8.06518
      H1     5.49153    5.85948    8.44946
       H    10.35256    1.27012   13.91386
       O    10.10022    0.66538   13.21277
      H1     9.29133    0.95979   12.91273
       H     1.35917   -0.35198   14.82072
       O     0.48520   -0.70931   14.68678
      H1     0.29664   -1.32348   15.41574
       H    -0.35061   -1.35695   11.02310
       O     0.35656   -1.01285   10.47096
      H1     0.12648   -1.21927    9.57562
       H     7.39840    2.76159   13.87007
       O     7.89613    3.11954   13.11114
      H1     7.25921    3.60059   12.61949
       H     3.03966    2.08803   19.17031
       O     3.78715    1.63355   18.69890
      H1     4.43552    2.37545   18.54536
       H     8.89567    5.97126   14.18239
       O     8.12401    6.58552   14.10249
      H1     7.30174    6.08905   14.25428
       H     9.60593    0.23527    8.64778
       O     8.84306    0.37863    9.22188
      H1     8.62263   -0.45426    9.71496
       H     6.01427    1.82488    8.15567
       O     5.36756    2.31162    8.69852
      H1     5.87028    2.83930    9.33908
       H     7.59461   -4.11080   12.73731
       O     7.82677   -3.18504   12.60267
      H1     8.47701   -2.95393   13.26338
       H    -1.62077    5.54764   15.46456
       O    -2.04191    5.95600   16.22824
      H1    -1.31474    6.11478   16.88526
       H     5.06245   -4.00537   12.03402
       O     5.20147   -4.97729   11.93795
      H1     6.14655   -5.23238   11.82878
       H     0.70763    5.70842   14.81872
       O     1.09554    6.54960   14.42822
      H1     1.35584    7.08647   15.11143
       H     1.31495    4.67025   17.42864
       O     1.84732    4.82182   16.63106
      H1     2.32469    4.01451   16.44567
       H     3.09385   -0.08195    6.15753
       O     2.54105   -0.48111    6.89757
      H1     2.76467   -0.25798    7.76469
       H     1.85308    2.13901   15.97287
       O     2.76156    2.31639   16.10902
      H1     2.96195    1.77891   16.93937
       H     2.88312    4.69445   12.32043
       O     3.21238    5.25964   12.97120
      H1     2.39306    5.39094   13.52198
       H     1.61392   -4.20433   13.05260
       O     1.95147   -4.31485   13.96601
      H1     1.98529   -5.30305   14.08145
       H     6.24414   -0.01386   11.15872
       O     6.04515    0.88523   11.41033
      H1     5.10777    0.95214   11.75675
       H     3.33286    6.78679   12.24223
       O     3.48220    7.68396   11.91327
      H1     4.38460    7.94536   12.27123
       H     6.35350    3.83196   17.10827
       O     5.87054    3.65168   17.94405
      H1     6.53562    3.23049   18.51831
       H     0.80017    3.03149    7.86120
       O     1.73061    2.88680    8.13938
      H1     2.23914    2.83195    7.31920
       H     0.87677    0.56649   10.66236
       O     1.26593    1.50702   10.59802
      H1     1.31380    1.72297    9.61079
       H     0.06992   -4.42702   11.46811
       O     0.93248   -4.04802   11.35236
      H1     0.75286   -3.11714   11.08905
       H     2.35266    6.22383    8.50535
       O     1.46982    6.19681    8.04319
      H1     1.31009    7.14052    7.74577
       H    10.38652    4.88013   13.01931
       O     9.85931    4.61491   13.73457
      H1     9.15201    4.05205   13.37934
       H     7.76644   -0.21267   17.80825
       O     6.94354   -0.38335   18.24144
      H1     6.25949   -0.20575   17.59885
       H     4.17685   -3.20426   17.65965
       O     4.81933   -2.62472   18.10826
      H1     4.60484   -2.71390   19.05009
       H     3.90005    5.69652    9.94091
       O     3.93973    6.49506    9.38507
      H1     3.91094    7.24719    9.98800
       H    -2.36360    2.22232   13.60635
       O    -2.80210    1.38401   13.80555
      H1    -2.86942    1.40290   14.72164
       H    -0.02722    7.08277   13.16744
       O    -0.55303    7.25712   12.35480
      H1    -0.89202    8.15018   12.35404
       H     4.12036    2.46692    7.05350
       O     3.60576    2.58578    6.25073
      H1     4.04420    3.29543    5.83271
       H     3.87394    2.61202   13.35238
       O     3.57118    1.88759   12.79763
      H1     3.13422    2.28044   12.02719
       H     2.52529    8.86246   12.79003
       O     2.21464    9.75643   13.15562
      H1     2.92479   10.44117   13.12795
       H     8.59574    1.70517   16.21300
       O     9.08690    0.89014   16.17507
      H1     9.97788    1.16310   15.88048
       H     0.37589    4.45406   11.11205
       O     0.73500    3.87249   11.85306
      H1     0.85659    3.00389   11.40343
       H     8.80724    3.53880   10.13410
       O     9.58173    2.97028   10.19448
      H1     9.26869    2.12886   10.44276
       H     2.22587   -4.69109   17.06099
       O     2.88954   -4.05142   16.77770
      H1     2.74491   -3.84491   15.82593
       H     7.41549    5.51510    9.42606
       O     8.02319    5.35087   10.14925
      H1     8.44434    6.20886   10.31536

