180
frame 6 | Written by MDAnalysis XYZWriter (release 2.4.3)
       H   -12.22751    7.18348   14.28428
       O   -11.33869    7.09404   14.68593
      H1   -11.57579    7.01616   15.61538
       H   -17.21032    6.84784    9.80578
       O   -17.39152    7.37357   10.66239
      H1   -17.71380    8.24868   10.38175
       H   -15.02110    3.51078   18.61898
       O   -14.86152    2.57474   18.54337
      H1   -15.21651    2.22097   19.35527
       H   -13.40313   10.61733   19.85178
       O   -14.06163   10.75430   19.10996
      H1   -14.86218   10.30338   19.44480
       H    -9.10003    7.55077   14.39312
       O    -8.71015    7.72938   13.50969
      H1    -7.77431    7.86713   13.80534
       H   -13.85481    6.80738   11.20583
       O   -14.63542    6.32115   11.50968
      H1   -15.34021    6.92751   11.22001
       H   -17.26365    3.42710   16.70722
       O   -16.92618    2.52051   16.83202
      H1   -16.03978    2.64516   17.17179
       H   -14.36215   15.43391   16.30847
       O   -13.73374   14.88328   15.85532
      H1   -13.79636   14.14344   16.53142
       H   -13.21887    9.38808   13.61913
       O   -12.67233   10.22428   13.52439
      H1   -11.77516    9.99322   13.83226
       H   -15.92792   15.25340   14.35723
       O   -15.98933   16.22314   14.16724
      H1   -15.96241   16.53887   15.08823
       H   -11.48213    4.14407   15.24895
       O   -11.11509    4.26592   14.38861
      H1   -10.99371    5.28946   14.42294
       H    -9.81950    4.18276   17.50146
       O   -10.72744    3.89918   17.30797
      H1   -10.80476    3.17419   17.97090
       H   -15.05252    9.54996    7.54287
       O   -16.00664    9.76068    7.78353
      H1   -16.06123    9.56339    8.72361
       H   -14.68601    8.27355   14.04560
       O   -13.91580    7.73648   13.71043
      H1   -14.30908    7.31879   12.85163
       H    -9.30950   11.47060    9.02994
       O    -8.85394   10.72047    9.43064
      H1    -9.61009   10.02332    9.50211
       H   -14.15785    4.18323   16.41352
       O   -14.43651    5.13465   16.39111
      H1   -13.80488    5.46593   17.12647
       H   -18.86410    5.37970   17.86083
       O   -18.13162    5.68137   17.30932
      H1   -17.92722    6.54133   17.68880
       H   -10.19183    4.48903    9.94127
       O    -9.45212    5.16988    9.98174
      H1    -9.11666    4.96485   10.82701
       H    -9.62348    3.11708   14.56852
       O    -8.71406    3.00719   14.24018
      H1    -8.53147    2.20895   14.72824
       H    -8.81613   12.22519   12.44305
       O    -9.60343   12.77030   12.75842
      H1    -9.62255   12.38268   13.62085
       H   -12.57374    3.57246   10.01701
       O   -11.61553    3.49473    9.71414
      H1   -11.55008    2.67702    9.19217
       H   -16.20977   10.04268   14.09542
       O   -16.08209    9.20543   14.65019
      H1   -16.69855    8.67460   14.13941
       H   -13.08477    9.05996   18.72183
       O   -12.28540    8.49939   18.49926
      H1   -12.58010    7.59895   18.71515
       H   -11.57342    9.39058    7.69956
       O   -10.89746    9.08099    8.32823
      H1   -10.70370    8.24286    7.87089
       H   -10.05659    9.81642   15.18468
       O    -9.94531   10.16502   14.27537
      H1    -9.61951    9.38490   13.75937
       H   -16.42228   13.55082   18.49518
       O   -15.83502   14.12814   18.97694
      H1   -15.79006   13.61420   19.78819
       H   -10.75442    6.29111   11.02331
       O   -11.56221    6.89073   11.01748
      H1   -11.89021    6.64945   10.13639
       H   -18.32351    2.60858   14.09208
       O   -18.06648    1.65913   14.27660
      H1   -17.61043    1.76451   15.09940
       H   -18.90733    9.91032    9.50040
       O   -18.55378    9.82348   10.40480
      H1   -17.91422   10.60906   10.37622
       H   -17.35783    4.67867   14.51295
       O   -18.27887    4.46729   14.89147
      H1   -18.47006    5.17619   15.50216
       H    -8.07938    5.94393   12.66015
       O    -7.65612    5.32102   11.99899
      H1    -7.70511    4.54789   12.56647
       H   -12.37053    4.67214    7.54192
       O   -13.03300    5.22106    7.95455
      H1   -13.29071    5.68826    7.04188
       H   -13.44855   12.34019   18.05665
       O   -13.10671   13.26719   17.96332
      H1   -13.50826   13.65933   18.74678
       H   -11.17696   12.43801   11.74616
       O   -11.63511   12.46916   10.86770
      H1   -11.80608   11.55058   10.70747
       H   -19.09676    8.29304   13.89487
       O   -18.62626    7.59792   14.45384
      H1   -18.94724    6.77366   14.05659
       H   -15.11087    3.28919   11.12604
       O   -15.65142    2.90288   11.83996
      H1   -15.47857    3.58446   12.49248
       H   -14.42092   15.06679   11.31680
       O   -14.27956   16.06468   11.39027
      H1   -14.18224   16.22841   12.33216
       H   -13.39345   10.57673    7.50122
       O   -13.47919    9.70985    7.12522
      H1   -13.26547    9.78358    6.19395
       H   -14.93069    5.63769   13.07019
       O   -15.41100    5.10751   13.73871
      H1   -15.08679    5.47445   14.55272
       H   -16.35050    5.88332    7.82524
       O   -16.53670    5.57725    8.74776
      H1   -15.78179    4.98835    8.94221
       H   -16.80452   11.63156   12.55017
       O   -16.55816   11.47962   13.48738
      H1   -17.42618   11.77541   13.94084
       H   -12.67689    5.54368   19.19683
       O   -12.44287    5.84803   18.29607
      H1   -11.65038    5.34847   18.05462
       H   -14.04556    3.90917    8.79008
       O   -14.62021    3.49122    9.43517
      H1   -14.78943    2.64936    9.00007
       H   -14.09144    0.53350   12.89524
       O   -14.60716    1.04822   13.57638
      H1   -15.27300    1.54843   13.04259
       H   -17.48017   12.81248   10.77837
       O   -16.98354   11.98146   10.64785
      H1   -16.09758   12.32615   10.76615
       H   -13.21833    2.03456   12.90797
       O   -12.28456    2.05447   12.58225
      H1   -11.86285    2.81588   12.97357
       H    -9.64307    9.62813   17.42047
       O   -10.18946    9.17318   16.78770
      H1   -11.07780    9.11494   17.14076
       H   -18.80976    6.58584   11.51201
       O   -19.59612    6.51508   12.12949
      H1   -19.57138    5.52651   12.27359
       H   -19.55113   12.46659   13.81049
       O   -18.73495   12.85884   14.21184
      H1   -18.73972   13.82525   13.84103
       H   -17.56294   11.24051   17.96942
       O   -17.35519   12.16007   17.64573
      H1   -18.11695   12.47886   17.11472
       H   -17.21921    3.80948    8.93048
       O   -17.73758    3.00301    8.55524
      H1   -18.60232    3.40086    8.49941
       H   -14.60478   13.51303   14.67984
       O   -15.16048   13.60150   13.93521
      H1   -15.46066   12.65742   13.97436
       H   -11.34391    8.61666   11.37247
       O   -11.40401    9.58344   11.19763
      H1   -11.70921    9.95449   12.02395
       H   -16.47206    4.53574   20.00474
       O   -16.00821    5.06982   19.36809
      H1   -16.77225    5.12044   18.76477
       H    -8.51515    6.75738   17.88700
       O    -9.45937    6.78063   17.84325
      H1    -9.66321    7.60088   17.42470
       H   -13.71778    1.99779   14.74111
       O   -13.32999    2.47622   15.49041
      H1   -12.47639    2.11939   15.68638
       H   -12.98219    9.24723   10.41788
       O   -13.78535    8.93543    9.90121
      H1   -13.40725    8.82466    9.04403
       H   -10.50041   13.47274   19.51774
       O   -10.71904   12.69440   19.04327
      H1   -11.56031   13.02186   18.57616
       H   -13.31296   12.86926   11.30081
       O   -14.23665   13.16744   11.39240
      H1   -14.23357   13.21370   12.36256
       H   -16.69499    9.08438   17.58151
       O   -17.54853    9.34639   17.96590
      H1   -17.30820    9.05945   18.87023

