180
frame 52 | Written by MDAnalysis XYZWriter (release 2.4.3)
       H     2.88604    7.53407   -6.82513
       O     3.85216    7.43470   -7.09250
      H1     4.26841    8.11964   -6.48114
       H    -2.15564    4.47218  -11.99217
       O    -2.84119    4.48724  -11.31456
      H1    -3.57317    4.19060  -11.94882
       H    -7.55997    7.53063   -5.48757
       O    -7.11505    7.03526   -4.84634
      H1    -6.38936    6.68276   -5.41403
       H     0.04425    3.66726  -15.48478
       O    -0.30538    4.01277  -14.62595
      H1    -0.28745    4.99040  -14.81434
       H     1.45829    2.26423   -7.21030
       O     1.71651    2.59300   -6.39589
      H1     2.49056    2.00051   -6.25148
       H    -0.29216   13.68016   -8.59612
       O    -0.89524   14.40076   -8.23765
      H1    -0.86580   15.08983   -8.93997
       H    -3.86859    0.97002   -9.90233
       O    -2.95777    0.69361   -9.86510
      H1    -2.62077    1.38220   -9.25879
       H     0.92320    2.92308  -10.65631
       O     1.22621    2.81049   -9.76384
      H1     1.23031    3.72460   -9.44815
       H    -5.05410    5.95786   -8.93614
       O    -5.22869    5.61658   -8.05148
      H1    -5.00209    6.40868   -7.55367
       H    -3.83397    9.10212   -2.72492
       O    -3.81623    8.90950   -3.65177
      H1    -3.00402    8.45314   -3.75618
       H    -1.37086    7.01338  -13.52713
       O    -0.56248    7.02748  -14.03595
      H1    -0.84379    7.58387  -14.76153
       H     0.61810   12.06308   -4.26867
       O     1.02104   11.44724   -3.62880
      H1     1.73919   11.13716   -4.24841
       H     4.73701    6.26609   -8.34048
       O     5.37833    5.50965   -8.43171
      H1     5.73931    5.65529   -9.27395
       H     1.07246    5.57147  -10.78346
       O     0.60056    5.69595  -11.60060
      H1     0.70171    6.59453  -11.83318
       H     2.63899    6.44180   -9.31526
       O     1.97299    5.77535   -9.24690
      H1     1.25500    6.26253   -8.92103
       H     0.19530    0.16658   -5.37282
       O    -0.74669    0.41780   -5.52961
      H1    -0.59072    0.93156   -6.33629
       H    -3.15450    5.27522   -3.04480
       O    -3.92805    5.83895   -2.84707
      H1    -4.52289    5.14174   -2.44603
       H     0.38906    8.53214   -7.05467
       O     1.21178    8.89335   -6.72429
      H1     1.13227    9.09723   -5.79346
       H     0.58031    4.29656   -6.53626
       O     0.50763    5.21282   -6.25615
      H1     1.02302    5.28119   -5.37622
       H     1.85547    7.72658  -15.04482
       O     1.57107    8.37004  -14.36911
      H1     0.80989    7.86364  -13.94938
       H    -1.06625    7.27805   -7.69844
       O    -0.47568    7.42262   -8.43859
      H1    -0.95417    7.04448   -9.17241
       H    -4.91186    7.92531  -11.17910
       O    -4.50222    7.35787  -10.53344
      H1    -3.99183    7.94836   -9.90784
       H     2.46956   10.87543  -13.34625
       O     1.59032   11.18103  -13.06656
      H1     1.81922   12.09184  -12.90106
       H    -5.10161   10.45820   -5.35910
       O    -5.71203    9.70393   -5.53588
      H1    -5.19847    9.08523   -5.05410
       H     2.80208    9.71405   -9.47084
       O     2.79267    8.89441  -10.04138
      H1     1.91139    9.08655  -10.38570
       H     2.26392   10.17401   -7.52888
       O     3.03893   10.65952   -7.83162
      H1     3.05380   11.53910   -7.40188
       H     3.82900   10.96038   -4.55322
       O     3.29267   10.28039   -4.91963
      H1     3.60194   10.24010   -5.83866
       H     3.23647   13.74296   -7.22504
       O     3.19660   13.15471   -6.43538
      H1     3.69492   13.66728   -5.72744
       H    -1.45234    3.70233   -2.97550
       O    -1.55736    4.60770   -3.19216
      H1    -1.56563    4.99040   -2.32131
       H     3.09674    8.60493  -13.34464
       O     3.90567    8.57404  -12.77783
      H1     3.47618    8.76736  -11.89363
       H     5.53261    8.44748   -8.13427
       O     5.83443    8.55209   -9.03126
      H1     5.09426    9.12449   -9.35567
       H    -1.03034    7.97950   -5.42023
       O    -1.44631    7.30000   -6.02003
      H1    -0.76815    6.59654   -5.97259
       H     1.07055    1.86930  -13.20310
       O     0.35834    2.19907  -12.63847
      H1    -0.11192    2.87156  -13.20387
       H    -3.37599   11.87353   -4.78391
       O    -3.17753   11.01832   -5.19000
      H1    -3.15333   10.42881   -4.45241
       H    -2.15390    6.03097   -0.33196
       O    -1.88184    6.60380   -1.10183
      H1    -2.56703    6.45543   -1.74773
       H     0.05082    8.99067  -10.96461
       O     0.58861    8.62106  -11.68092
      H1     0.84264    9.34708  -12.26001
       H    -1.20572    4.12986   -5.73234
       O    -1.74168    3.40902   -6.08441
      H1    -2.37918    3.22266   -5.36225
       H    -7.31083    4.12876   -9.86490
       O    -6.81278    3.64853   -9.13725
      H1    -6.36961    4.40844   -8.62367
       H    -4.34769    7.88718  -13.50945
       O    -3.38444    7.89943  -13.53002
      H1    -3.12384    7.83906  -12.58156
       H    -5.98671   10.27682  -10.26829
       O    -5.87565    9.86630   -9.37938
      H1    -6.58238    9.22656   -9.39085
       H    -0.35888    8.96528   -3.58636
       O    -0.70927    9.29432   -4.43252
      H1    -0.25336   10.10827   -4.43501
       H    -1.78482   10.03735   -9.61877
       O    -0.82797   10.17148   -9.47477
      H1    -0.65708    9.48030   -8.83465
       H    -1.54142    9.92993  -14.73452
       O    -1.27906    9.54500  -15.63018
      H1    -0.38783    9.92222  -15.79267
       H     4.22629    5.03404   -6.70955
       O     3.83263    4.52324   -5.97118
      H1     2.95397    4.40586   -6.35831
       H    -2.90138   10.06009  -13.20657
       O    -2.03170   10.47807  -13.28527
      H1    -1.46200    9.99180  -12.72661
       H    -4.18587   10.40105   -9.97923
       O    -3.31602   10.59480  -10.25995
      H1    -3.17460   11.53547  -10.11676
       H     3.32853    7.59553   -3.18891
       O     3.69801    8.45603   -2.90784
      H1     3.30732    9.08142   -3.48543
       H    -3.65208    8.28390   -6.87250
       O    -3.75693    8.26372   -7.84992
      H1    -4.59592    8.80384   -7.94380
       H    -5.53653    5.84738  -13.05585
       O    -6.10728    6.66076  -13.06668
      H1    -6.60355    6.52821  -13.85221
       H    -2.43740   13.95743   -9.21984
       O    -2.77143   13.30973   -9.86040
      H1    -3.63347   13.67373  -10.17480
       H    -0.12275    7.07236   -1.89735
       O     0.42381    7.34524   -2.61221
      H1     1.08705    6.70717   -2.64827
       H    -2.69759    3.39910   -9.74699
       O    -2.82066    3.16251   -8.86131
      H1    -3.35616    3.91514   -8.65801
       H     5.24108    3.02629   -9.42657
       O     5.19821    2.38299   -8.72433
      H1     4.47988    2.75566   -8.18970
       H     2.73771    5.00974   -3.60476
       O     2.65008    5.90688   -4.01205
      H1     3.17957    5.64061   -4.81509
       H    -1.20517    2.30749   -8.05930
       O    -0.49297    1.61196   -7.97776
      H1    -0.00878    1.80985   -8.77560
       H    -0.90309    6.52110  -11.22512
       O    -1.73959    7.03060  -10.92880
      H1    -2.40051    6.34406  -10.96058
       H    -4.36563    5.12824   -5.78813
       O    -4.60109    5.98265   -5.40632
      H1    -4.24623    5.89461   -4.52813
       H     0.05825   11.61191   -9.17801
       O     0.55626   12.43675   -9.49272
      H1     0.26179   12.44687  -10.39036
       H    -1.03499   12.43264   -6.73667
       O    -0.80986   11.87358   -6.03169
      H1    -1.69107   11.53105   -5.76975
       H     6.38088    9.52054   -6.44474
       O     5.99112    8.71382   -5.99730
      H1     6.64557    8.37971   -5.36289

