180
frame 9 | Written by MDAnalysis XYZWriter (release 2.4.3)
       H   -17.65661   12.12072   -6.90098
       O   -16.81729   12.58411   -7.05803
      H1   -17.19318   13.41482   -7.35827
       H   -17.38548   15.83038   -4.66866
       O   -16.83596   15.26033   -4.14895
      H1   -17.31748   15.29377   -3.31801
       H   -11.95855    9.61679  -12.78228
       O   -12.71620    9.06488  -12.57972
      H1   -12.40909    8.24220  -12.90462
       H   -19.00409   18.76568  -17.00549
       O   -18.28752   18.60446  -17.66813
      H1   -18.69334   18.07617  -18.35606
       H   -17.46368   14.92975   -9.20142
       O   -18.30223   15.06319   -9.68637
      H1   -18.24541   16.01904   -9.60690
       H   -10.34157   13.70686  -15.59836
       O   -10.70156   12.97746  -16.10680
      H1   -11.66165   13.06846  -16.02958
       H   -15.16128   15.19418  -12.82318
       O   -14.55658   15.69506  -12.18256
      H1   -14.87247   16.58163  -12.30730
       H   -14.02016   19.18123   -3.20923
       O   -13.55888   18.46514   -3.68937
      H1   -14.03241   17.71672   -3.36671
       H   -13.59543   19.57936   -7.62506
       O   -14.49489   19.36338   -7.74852
      H1   -14.52424   18.87110   -8.58303
       H   -13.51487   13.99582  -11.54617
       O   -12.89106   13.26457  -11.59711
      H1   -12.65692   13.35550  -12.52733
       H   -15.52289   18.57972  -10.69659
       O   -14.87451   17.94990  -10.41717
      H1   -15.40348   17.27948   -9.96131
       H   -12.89350   17.79554  -10.67105
       O   -11.93873   17.90837  -10.86856
      H1   -11.84998   18.62620  -11.52806
       H   -15.61134   12.70225   -5.58624
       O   -15.30172   13.03419   -4.72025
      H1   -16.16612   13.43725   -4.44157
       H   -14.38169   14.54176   -4.89777
       O   -14.40388   15.37091   -5.30009
      H1   -15.30188   15.58075   -5.01384
       H   -19.25567   19.69118   -2.07672
       O   -19.33031   18.84977   -2.60579
      H1   -19.44552   18.23552   -1.82783
       H   -18.20358   17.11901   -6.40460
       O   -17.32281   17.18771   -6.06149
      H1   -17.38673   18.01194   -5.55087
       H   -13.79743   19.66203  -14.01032
       O   -13.94038   18.72029  -13.84690
      H1   -13.67811   18.41629  -14.73064
       H   -18.13615   19.53130   -4.75877
       O   -17.17936   19.46012   -4.72936
      H1   -16.96805   18.76810   -4.09732
       H   -15.11722   10.76737  -14.69877
       O   -16.00389   10.94244  -15.07622
      H1   -16.56208   10.45559  -14.40601
       H   -15.94336   15.07415  -16.88580
       O   -15.74446   14.12621  -17.19481
      H1   -15.04869   13.83311  -16.47397
       H   -16.97863   17.86174  -12.98979
       O   -16.79979   18.25599  -13.82912
      H1   -15.85069   18.49490  -13.81256
       H   -11.61388   12.42080  -10.60637
       O   -11.42764   11.88838   -9.81102
      H1   -10.58545   12.29805   -9.50642
       H    -8.71319   14.83013  -10.79869
       O    -8.81597   14.08373  -11.41053
      H1    -7.97441   13.62446  -11.59683
       H    -9.49020   19.34106  -16.52935
       O    -8.70611   19.14919  -15.97788
      H1    -9.11078   18.63535  -15.25635
       H   -10.64412   16.56292   -6.83577
       O    -9.72117   16.42064   -7.20060
      H1    -9.24255   17.19420   -6.80126
       H   -18.55157    7.20822  -11.60286
       O   -18.58659    8.18925  -11.55949
      H1   -18.26673    8.41517  -10.70912
       H   -13.80917   17.92554  -17.48994
       O   -13.08777   18.30766  -16.89218
      H1   -12.30665   17.76828  -17.05950
       H    -9.37747   17.18811  -17.65817
       O   -10.31179   17.38745  -17.56105
      H1   -10.75180   16.99164  -18.32922
       H   -12.95249   15.53183   -4.01915
       O   -12.34453   14.98212   -3.51802
      H1   -11.69700   15.70693   -3.19651
       H   -18.92086   14.93526   -7.91750
       O   -18.84428   14.80287   -6.98079
      H1   -19.43406   14.04391   -6.78876
       H   -12.13703   17.62700   -6.40546
       O   -11.58061   18.15867   -5.74542
      H1   -12.28594   18.47069   -5.09315
       H   -19.15285   15.73787  -14.27270
       O   -18.46422   15.52764  -13.62212
      H1   -18.94238   14.88705  -13.07808
       H   -11.65204   15.43632  -13.37868
       O   -12.39245   14.95008  -13.74273
      H1   -13.11757   15.25857  -13.17613
       H   -13.45950   12.61744  -15.40810
       O   -13.38367   13.46781  -15.81756
      H1   -13.04910   14.04043  -15.08790
       H   -13.53992   10.07390  -13.75647
       O   -13.52752   10.66990  -14.57240
      H1   -13.19508   10.06803  -15.25624
       H   -12.23820   18.87268  -13.40508
       O   -11.22395   18.75023  -13.48709
      H1   -10.91466   19.64546  -13.16121
       H    -9.64113   16.42616   -9.15615
       O    -9.86358   16.27021  -10.05329
      H1   -10.75665   16.62990  -10.03393
       H   -17.82185   16.43203  -11.98424
       O   -18.03298   17.30073  -11.63682
      H1   -18.81614   17.46636  -12.19280
       H   -18.87121   11.18807  -14.10122
       O   -18.63967   10.80515  -13.22308
      H1   -19.21490   10.03483  -13.11724
       H   -10.60378   17.12695  -12.89639
       O   -10.13732   16.27594  -13.08294
      H1    -9.91606   16.03526  -12.12352
       H   -18.92789   14.25038  -18.28487
       O   -18.54637   13.91520  -17.44980
      H1   -17.61850   13.74288  -17.63099
       H   -15.42677   12.89846   -8.16257
       O   -14.98402   13.41657   -8.86117
      H1   -14.02032   13.51208   -8.58821
       H   -13.98563   14.24749  -18.18990
       O   -13.50531   14.82666  -18.82553
      H1   -12.67031   14.96554  -18.42630
       H   -12.28594   13.90185   -7.36848
       O   -12.62069   14.15039   -8.25205
      H1   -12.21304   13.50156   -8.84877
       H   -15.52310   15.36655   -8.31988
       O   -16.06564   16.11960   -8.31419
      H1   -15.99251   16.55868   -7.44171
       H   -17.86579   11.13236   -9.62986
       O   -16.94884   10.96484   -9.45584
      H1   -16.87689   11.35273   -8.56856
       H    -7.60300   17.48805  -13.14759
       O    -7.69447   16.93559  -13.93176
      H1    -8.57418   16.64557  -13.78491
       H   -17.92166   11.75228  -17.19862
       O   -17.20180   11.17540  -17.53949
      H1   -16.66892   11.08270  -16.68681
       H   -15.57001   12.68076  -10.68510
       O   -15.43586   12.46715  -11.61312
      H1   -14.46829   12.65795  -11.66557
       H   -16.83870   14.91772  -13.89493
       O   -15.93209   14.65705  -14.17503
      H1   -16.08340   13.69416  -14.25936
       H   -13.49370    9.69025   -8.53231
       O   -13.80007   10.00512   -7.61209
      H1   -14.24787    9.15703   -7.46725
       H   -12.63442   15.91904   -8.03389
       O   -12.73925   16.64088   -7.41012
      H1   -13.35344   16.15088   -6.84717
       H   -17.39145   17.92841   -8.74001
       O   -18.27962   18.03813   -9.18646
      H1   -18.13805   17.77439  -10.12042
       H   -15.58448    9.91106  -11.61783
       O   -15.72662    9.01063  -11.99282
      H1   -16.68906    9.05345  -12.26443
       H   -16.96490   17.56621   -2.04518
       O   -16.17009   17.55110   -2.59255
      H1   -15.58448   17.11984   -1.93264
       H   -18.71148   12.51787  -12.20238
       O   -19.04763   13.29822  -11.71789
      H1   -18.38688   13.46050  -10.97237
       H   -17.87692   13.43850   -1.85109
       O   -18.11379   14.33875   -2.08528
      H1   -18.97989   14.43462   -1.69034
       H   -16.50412    8.47466  -10.14716
       O   -17.03376    8.35565   -9.36676
      H1   -17.28535    9.30067   -9.28447
       H   -16.67136   17.02251  -15.71895
       O   -16.20233   16.78739  -16.51303
      H1   -16.55618   17.42014  -17.22301
       H   -11.64717   14.31595   -5.27191
       O   -11.58279   13.47604   -5.68726
      H1   -11.86239   12.90799   -4.94713

