180
frame 0 | Written by MDAnalysis XYZWriter (release 2.4.3)
       H   -15.18382   12.21431    2.03245
       O   -16.14373   12.48009    1.90134
      H1   -16.04709   13.18157    1.27351
       H   -10.43805   10.94596    1.83033
       O   -11.09235   10.81828    2.55329
      H1   -11.86747   11.20695    2.14410
       H   -14.75819   19.07444    0.96652
       O   -15.37630   19.65261    0.49384
      H1   -14.71316   20.08855   -0.10862
       H   -10.85830   17.52111   -1.65519
       O   -11.51274   17.51379   -0.91983
      H1   -11.15471   16.79059   -0.41482
       H    -2.68699   13.78505    3.86905
       O    -2.80705   14.69596    3.61132
      H1    -3.43905   14.68461    2.87743
       H    -4.83495   18.66191    5.15821
       O    -5.72164   18.45268    4.82866
      H1    -5.57150   18.08064    3.92557
       H    -7.98969   16.73037    4.70319
       O    -8.75701   16.75159    4.13872
      H1    -8.77416   15.92494    3.61729
       H   -10.99498    9.60724   -2.69510
       O   -10.20762    9.23983   -2.18714
      H1   -10.60561    8.46917   -1.69553
       H   -12.96676    9.93261   -2.16467
       O   -12.60648    9.85972   -2.99876
      H1   -12.75859   10.73384   -3.43173
       H   -11.01769   16.62754    9.46773
       O   -10.41792   17.02495    8.84218
      H1    -9.55903   17.07034    9.31356
       H   -13.36029   16.83705   -0.61754
       O   -14.14469   16.29087   -0.42491
      H1   -14.92518   16.85215   -0.37696
       H    -9.01682   13.26784    7.20109
       O    -8.68774   14.10096    7.52878
      H1    -9.09034   14.73148    6.92293
       H   -13.04925   15.51270    4.31937
       O   -12.60988   16.36405    4.16480
      H1   -11.83732   16.34076    4.72611
       H    -9.08001   10.89252   -0.19276
       O   -10.06797   10.85452   -0.07805
      H1   -10.37624   10.13605   -0.66552
       H   -14.76917   17.27972    3.71624
       O   -15.09821   17.66913    2.89198
      H1   -16.01829   17.43847    2.98802
       H    -5.80360   18.82839   -1.50807
       O    -5.74815   19.39514   -0.73108
      H1    -6.59254   19.47615   -0.32803
       H    -9.01878   18.94588    6.23966
       O    -8.15183   18.95902    6.54383
      H1    -7.52470   19.18814    5.80041
       H   -11.35769   18.96044    0.08188
       O   -11.41716   19.76232    0.59838
      H1   -11.46973   19.40292    1.49728
       H    -7.05117    8.96911    2.10127
       O    -6.34237    8.75522    1.39159
      H1    -6.50808    7.82854    1.18423
       H   -15.72178   15.31190    0.60660
       O   -16.58391   14.90540    0.86033
      H1   -17.20531   15.18036    0.22041
       H    -7.62412   13.53888    1.93407
       O    -6.87193   13.22178    1.37951
      H1    -7.27563   12.44149    0.90942
       H   -13.51557   12.44088    0.83240
       O   -13.38910   11.74709    1.47388
      H1   -13.69306   11.00792    1.01546
       H   -15.79206   13.76457   -2.81437
       O   -14.97472   14.11248   -3.22854
      H1   -14.29554   13.78989   -2.58413
       H   -13.98619   18.92791    4.15642
       O   -13.46555   19.58813    4.69268
      H1   -13.44244   20.29820    4.06224
       H   -14.85328   15.53700    5.79511
       O   -15.43596   15.29461    5.07095
      H1   -15.70960   14.35609    5.14759
       H    -9.89497   18.29765    3.15729
       O   -10.41383   19.07529    3.41376
      H1   -10.43985   18.88640    4.35708
       H    -4.37315    9.10139    2.62533
       O    -4.14268    9.62953    3.38598
      H1    -4.57396   10.49992    3.26191
       H   -12.23704    7.61502    4.11316
       O   -12.64553    6.68733    3.94157
      H1   -13.14190    6.58061    4.76639
       H    -7.99724   15.17298   -1.82885
       O    -7.73951   15.68339   -1.06318
      H1    -7.42774   14.97689   -0.52342
       H   -10.91693   12.39241   -0.21075
       O   -11.00853   13.31531   -0.44872
      H1   -10.60534   13.33225   -1.33824
       H   -12.31017   14.73503   -4.83664
       O   -12.47231   15.24377   -3.99392
      H1   -13.23782   14.84246   -3.53111
       H   -13.29190    9.35511    0.22067
       O   -13.67718    9.87131   -0.47990
      H1   -14.54434    9.50428   -0.42190
       H    -9.36651   17.73091   -3.72017
       O    -9.49317   17.92603   -2.76358
      H1    -9.53713   18.89259   -2.71533
       H   -11.50966    8.84999    1.82068
       O   -12.20106    8.31723    1.38658
      H1   -11.75694    7.96526    0.65106
       H    -5.50493   14.56360    1.56169
       O    -4.76856   15.13433    1.62447
      H1    -5.01273   15.87992    2.22963
       H    -5.20612   12.52848    4.17644
       O    -5.05924   12.11988    3.27049
      H1    -5.58750   12.62704    2.63590
       H   -10.24742   16.34266    7.07482
       O   -10.24922   15.82325    6.22746
      H1    -9.86436   16.38004    5.55564
       H    -6.78263   11.46203   -0.80858
       O    -7.40100   10.92358   -0.25147
      H1    -6.84379   10.15411    0.06983
       H    -9.60316   13.44472    3.54678
       O    -9.08731   13.90845    2.86862
      H1    -9.90705   14.11129    2.41667
       H   -10.90440   11.94680    4.11518
       O   -10.62171   12.60050    4.77106
      H1   -10.17008   12.01944    5.36902
       H    -3.98276   11.98895    1.42534
       O    -3.91537   11.78972    0.48717
      H1    -3.21578   12.44767    0.32785
       H    -7.57024    9.01715    4.16294
       O    -8.36725    8.75506    3.62892
      H1    -8.53105    7.85717    4.04515
       H   -11.71949   18.42220    5.42819
       O   -11.01683   18.77107    5.98807
      H1   -11.47967   19.36946    6.59912
       H    -5.38036   12.49395   -2.47709
       O    -5.71718   12.70919   -1.55731
      H1    -4.97674   12.46597   -0.95533
       H    -6.76553   17.57689    1.68908
       O    -5.92157   17.56118    2.25409
      H1    -5.12798   17.81886    1.73673
       H    -4.88557   16.75845   -1.97674
       O    -5.70676   16.95196   -2.46014
      H1    -6.29461   16.49529   -1.84122
       H   -12.57467   13.60541   -0.66653
       O   -13.53514   13.65763   -0.81081
      H1   -13.80921   14.58655   -0.71370
       H   -15.49922   12.13890    5.60422
       O   -16.15615   12.80273    5.68361
      H1   -17.04630   12.43550    5.43971
       H    -8.34813   17.10215   -0.10645
       O    -8.36198   17.35183    0.86772
      H1    -8.63222   18.28807    0.86175
       H   -12.27822    9.65176    5.09504
       O   -11.51694    9.05315    4.89906
      H1   -11.11519    9.33459    4.07030
       H   -12.92296   11.76111    5.91013
       O   -13.64081   11.08110    6.01037
      H1   -13.97159   10.98399    6.90820
       H    -7.55378   13.90377    8.90127
       O    -7.21575   13.81382    9.78747
      H1    -6.76236   12.97459    9.79411
       H   -10.22202   10.72106    7.43155
       O    -9.78311   10.46723    6.60242
      H1   -10.34567    9.74372    6.31318
       H    -6.12611   17.11196    5.93796
       O    -6.58235   16.27436    6.17355
      H1    -6.85057   16.28764    7.10563
       H    -6.64856    9.99414    6.18924
       O    -7.16496   10.63537    6.77305
      H1    -8.05037   10.31928    6.71187
       H   -10.44699   14.50706   -3.48702
       O    -9.75046   13.90740   -3.08916
      H1    -9.26906   13.59936   -3.86658
       H   -10.71163   14.85067    0.47453
       O   -10.60452   15.67297    0.99609
      H1    -9.72324   16.06357    0.92881
       H   -12.80100   14.82387    7.24446
       O   -12.47368   14.21124    6.60013
      H1   -11.69661   14.62628    6.22739
       H    -4.95334   15.71000    5.83952
       O    -4.00544   15.70462    5.86884
      H1    -3.60778   15.19973    5.08279
       H    -6.60888   13.69919    5.79401
       O    -5.89752   13.01743    5.80074
      H1    -6.47650   12.21962    5.96762

