180
frame 79 | Written by MDAnalysis XYZWriter (release 2.4.3)
       H    -4.68434    0.13854    9.88032
       O    -4.80381    0.50983   10.75407
      H1    -3.96916    1.03104   10.82876
       H    -7.22808    5.38210   13.33482
       O    -7.72349    6.19350   13.19591
      H1    -7.15683    6.36169   12.41242
       H     0.17723    4.66797    6.25615
       O    -0.35171    5.06999    6.97839
      H1     0.23801    4.99165    7.78338
       H    -3.19409    8.52532   15.20092
       O    -2.85921    7.68538   14.88791
      H1    -2.35052    8.11274   14.13601
       H     0.79570    9.16053   13.02044
       O     1.30735    9.14924   13.83706
      H1     2.08393    8.71000   13.49346
       H    -6.74793    8.42298    8.10346
       O    -6.14470    8.25202    7.38349
      H1    -6.74800    7.88736    6.68812
       H     0.59330    7.86135   15.53347
       O     0.25453    7.17151   16.08088
      H1    -0.27681    6.59145   15.51385
       H    -1.68947    4.89809   11.94729
       O    -2.41197    5.51429   11.97298
      H1    -2.87429    5.22536   12.73911
       H     3.94842    7.66396    9.47465
       O     4.64132    7.06970    9.88222
      H1     4.75066    6.45387    9.07043
       H     2.48790    6.39648   11.52057
       O     1.48945    6.57010   11.50028
      H1     1.22894    5.76875   11.05593
       H    -8.40711    4.83569    8.77052
       O    -8.61899    5.03104    9.72761
      H1    -8.29065    4.18121   10.13184
       H    -3.98776    7.34144    4.00149
       O    -3.97718    8.10591    3.40140
      H1    -3.54091    8.78763    4.01619
       H    -0.76748   11.23318   13.99483
       O    -1.70031   11.28906   14.26926
      H1    -1.98505   12.13560   13.81427
       H    -3.11362    2.76005   10.87020
       O    -2.51656    2.16059   11.30512
      H1    -1.65390    2.06801   10.84027
       H    -6.77743    9.47242   10.63953
       O    -6.11776    8.86155   10.43183
      H1    -5.38219    9.42528   10.20116
       H    -3.45196    3.40293    6.83429
       O    -3.61209    2.45571    6.49498
      H1    -4.33194    2.14913    7.09798
       H    -5.69437   12.82462   15.32111
       O    -5.08276   13.21777   14.68777
      H1    -4.71876   12.42645   14.28676
       H    -6.26147    7.01075   10.55293
       O    -6.40861    6.06807   10.80081
      H1    -7.16235    5.88218   10.23299
       H    -5.92184    5.54031    4.04523
       O    -5.24100    5.98079    4.61330
      H1    -5.43573    5.60206    5.43465
       H   -10.72762    7.43900   12.76694
       O   -10.01264    8.00738   12.47705
      H1    -9.28299    7.56172   12.93339
       H    -7.11007    3.86856   15.01931
       O    -6.32307    4.34219   14.60074
      H1    -6.01508    4.93475   15.26108
       H    -8.50870    3.03601   12.29881
       O    -8.04935    2.71055   11.46897
      H1    -7.15857    2.92552   11.72684
       H    -4.85106   10.19074   13.58195
       O    -4.62490    9.96892   12.63048
      H1    -5.04673    9.12598   12.53978
       H    -3.62464   11.08243   10.07912
       O    -4.60594   11.02914   10.04426
      H1    -4.77095   10.77290   11.02002
       H    -8.11068    5.34725    6.37008
       O    -8.34369    4.49005    6.74549
      H1    -7.43085    4.30697    7.19644
       H    -1.69498   10.00305   16.40145
       O    -2.10833    9.50643   17.02788
      H1    -1.94431    8.51485   16.82355
       H    -0.19539   13.56531   10.78424
       O    -0.86105   13.70986   10.10358
      H1    -1.03746   12.72480    9.99880
       H    -1.21296    4.71091   14.19110
       O    -0.77536    5.53309   14.00935
      H1    -1.31882    5.99053   13.32970
       H    -3.49154   10.73079    5.14882
       O    -2.72096   10.21972    4.94109
      H1    -2.27629   10.02038    5.83957
       H     0.25932   11.14424    4.60563
       O    -0.28987   10.67294    3.91545
      H1    -1.06667   10.53091    4.48354
       H    -3.42509    7.44253    9.54956
       O    -2.81346    7.83640   10.19158
      H1    -2.74986    7.13193   10.89736
       H    -4.85790   10.55117   16.19407
       O    -4.51911   10.15606   15.35645
      H1    -3.63700   10.58310   15.30640
       H    -0.54685    9.61186    7.44651
       O    -1.06078   10.29979    7.03713
      H1    -0.26766   10.97543    6.87794
       H    -9.25049    9.46059   11.16416
       O    -8.52402   10.05981   11.09297
      H1    -8.81509   10.45702   10.27359
       H    -4.04820    4.34086   13.78535
       O    -3.31292    4.56142   14.34047
      H1    -3.55327    5.37591   14.75183
       H    -6.25948   10.34537    6.56816
       O    -6.76915   11.16092    6.46064
      H1    -6.39459   11.68856    7.19691
       H    -1.65264   13.93863   12.92580
       O    -2.33412   13.36804   12.51769
      H1    -2.08251   13.45224   11.57062
       H    -2.69720   12.75228    7.70534
       O    -3.24895   13.50701    7.75017
      H1    -2.52908   14.14482    7.75218
       H    -2.85698    5.35122    5.61688
       O    -2.99932    5.05814    6.57378
      H1    -2.09863    5.07222    6.81451
       H    -6.52333    1.44383    8.09643
       O    -5.83566    2.01662    8.54502
      H1    -5.86839    1.49754    9.40042
       H    -5.63671    5.45921    8.32939
       O    -6.06314    4.69381    7.94212
      H1    -5.64292    3.96150    8.42890
       H    -3.71829    6.02988    7.80164
       O    -4.27125    6.52126    8.47979
      H1    -4.71864    7.21892    8.03814
       H     1.41749   12.11312   12.60328
       O     1.06969   12.52435   11.75713
      H1     1.84788   12.51621   11.22696
       H    -6.93241    7.89652   15.55571
       O    -6.78078    8.59952   14.92409
      H1    -5.87414    8.94467   15.15946
       H    -2.01519   10.03727   12.84371
       O    -1.93930    9.03717   12.63190
      H1    -1.99225    8.96352   11.68593
       H    -0.45482    1.85858    9.11138
       O    -0.22881    2.06085    9.98720
      H1     0.07588    1.24082   10.41896
       H     3.13560   11.57284   13.41767
       O     2.27890   11.67637   13.84937
      H1     2.01923   10.75384   13.75794
       H    -9.36536    6.26377   15.63568
       O    -8.39483    6.49602   15.82924
      H1    -7.90578    6.56611   14.98454
       H    -0.61120    2.67355    6.84780
       O    -0.92141    1.84716    7.24609
      H1    -1.80875    1.72734    7.02261
       H     2.63512    7.92459    7.56994
       O     2.25902    8.25640    8.40423
      H1     1.27495    8.06728    8.45536
       H    -4.95141    4.75381   10.61326
       O    -4.10970    4.22175   10.52279
      H1    -3.45206    4.89183   10.73191
       H    -1.48271   10.95775    8.71567
       O    -1.78042   11.11139    9.62668
      H1    -0.94975   10.76853   10.08478
       H    -9.58583    7.28415    8.56989
       O    -9.11545    7.78360    7.87906
      H1    -9.64082    8.60261    7.74271
       H     1.57621   11.34666    5.75166
       O     0.75938   11.85544    5.95821
      H1     0.95240   12.76712    5.74794
       H     0.81032    8.22121   10.74296
       O     0.83011    9.19169   10.94714
      H1     1.64913    9.48706   10.49647
       H    -5.33584   12.17708    9.22637
       O    -5.81286   12.79794    8.53321
      H1    -5.07283   13.43707    8.45059
       H    -7.97371   11.18485    7.68336
       O    -8.69890   11.32268    8.33087
      H1    -9.01707   12.23471    8.20502
       H    -5.70191    3.15389   13.36284
       O    -5.25092    2.67267   12.70507
      H1    -5.42495    1.76906   12.99432
       H    -1.36432    7.91540    8.89122
       O    -0.69490    7.85114    8.20294
      H1    -0.73348    6.94473    7.82975
       H     1.65875    4.63365    9.54966
       O     0.72857    4.73955    9.73100
      H1     0.40330    3.82816    9.79156

