180
frame 12 | Written by MDAnalysis XYZWriter (release 2.4.3)
       H     3.13221  -12.01548   18.10104
       O     3.61535  -11.15309   18.20586
      H1     3.90980  -11.11940   19.10746
       H    -1.03961  -13.63236   18.42710
       O    -0.35910  -13.28462   19.02526
      H1    -0.42104  -12.34292   18.91399
       H    -8.68270  -17.28583   12.96693
       O    -8.31182  -17.06759   13.83034
      H1    -7.38378  -17.36980   13.76205
       H    -1.00091   -7.15042   19.30316
       O    -0.41350   -6.38889   19.37969
      H1    -0.99108   -5.74513   18.96333
       H     4.05243  -16.24195   14.92742
       O     3.72470  -16.97089   14.34783
      H1     3.03639  -16.55570   13.87015
       H     0.80316   -9.96663   14.21360
       O     0.95853   -9.12888   13.69739
      H1     0.38387   -9.46366   12.94980
       H    -6.10320  -11.71118   13.41859
       O    -6.17360  -11.10310   14.18789
      H1    -6.47603  -11.76623   14.84568
       H    -4.58695  -16.10965    9.27167
       O    -5.41176  -16.30364    9.80741
      H1    -6.09817  -16.03913    9.17830
       H     1.81456  -18.65758   11.78398
       O     0.88116  -18.33729   11.78679
      H1     0.52955  -18.69749   10.95421
       H    -1.07431  -19.17970   19.33399
       O    -0.65745  -19.90915   18.88799
      H1     0.22113  -19.78014   19.36486
       H    -5.55057  -11.31727   10.67242
       O    -6.23506  -11.56842   11.26189
      H1    -6.71824  -10.75537   11.52455
       H    -8.19269  -15.64761   16.60379
       O    -7.32228  -15.81714   17.03001
      H1    -7.38585  -15.06079   17.70606
       H     2.55034  -16.12589   11.77216
       O     1.84337  -15.90339   12.40476
      H1     1.26558  -16.65251   12.09057
       H    -5.64968  -13.40207   11.06366
       O    -5.05370  -14.13619   11.39095
      H1    -5.32407  -14.86987   10.77544
       H   -10.22371  -13.23531   19.33427
       O   -10.63182  -12.51721   18.79926
      H1   -10.70650  -11.79727   19.41579
       H    -5.31723   -9.42203   13.43176
       O    -5.10215   -8.65422   12.96099
      H1    -4.16774   -8.52634   13.29679
       H    -1.66350   -7.31048   17.06304
       O    -2.08516   -7.88701   17.68575
      H1    -1.61055   -8.72597   17.56003
       H    -3.39977  -12.23699   14.82900
       O    -2.77094  -12.86517   14.33439
      H1    -2.71558  -12.32526   13.53664
       H    -2.81261  -17.95295   11.07225
       O    -2.53326  -18.07027   10.12777
      H1    -1.93829  -18.80812   10.06696
       H    -3.80643   -7.63483   18.57224
       O    -4.21024   -7.13778   19.32488
      H1    -5.07702   -7.65892   19.47625
       H    -4.68386   -9.21405   16.46013
       O    -5.38474   -8.71829   16.99723
      H1    -5.45112   -7.77566   16.75441
       H    -2.95199  -11.45658   17.24319
       O    -3.70249  -11.39051   16.58608
      H1    -4.49198  -11.69375   17.02206
       H    -8.32110  -18.88311   14.70357
       O    -8.38067  -19.67446   15.27334
      H1    -8.38045  -19.27209   16.15751
       H    -1.99454  -12.00663   11.71215
       O    -2.41749  -11.16952   12.13101
      H1    -1.82884  -10.45731   11.81499
       H    -6.01461  -13.26233   16.75017
       O    -6.12454  -12.53831   17.41125
      H1    -7.01995  -12.26458   17.17883
       H    -0.17523  -17.94412   16.80954
       O     0.20451  -17.09223   17.05217
      H1    -0.55446  -16.48462   17.05184
       H    -2.60297  -16.56394    9.44716
       O    -2.71905  -15.69737    8.95545
      H1    -2.78928  -15.06584    9.67631
       H     2.88899  -13.78256   19.34943
       O     2.44765  -13.57415   18.43514
      H1     1.48349  -13.54076   18.71558
       H     1.09320  -14.79167   11.23695
       O     0.46591  -14.17496   10.78214
      H1     0.73439  -14.19020    9.86233
       H    -2.48634  -15.72307   18.09442
       O    -1.92789  -15.12410   17.56765
      H1    -2.23933  -15.35467   16.66455
       H     6.45955  -16.12988   17.42552
       O     7.28767  -16.41913   17.00583
      H1     7.88027  -15.62517   17.02295
       H     3.08616  -12.96637   12.71157
       O     2.41541  -13.10493   13.38952
      H1     2.26333  -13.99672   13.30611
       H    -3.53513  -15.63765   15.20084
       O    -2.64540  -15.42075   14.89402
      H1    -2.69551  -14.47329   14.69680
       H     3.31907   -9.83320   17.00287
       O     2.88030   -9.33905   16.28407
      H1     3.17049   -9.78140   15.49742
       H     5.43024  -11.84376   16.01386
       O     6.06388  -12.38205   16.41756
      H1     5.84128  -12.58182   17.32115
       H    -6.41207  -14.57964   12.65617
       O    -7.17738  -14.51362   13.21187
      H1    -7.48391  -15.42090   13.31022
       H     4.59706  -10.26823   14.02332
       O     4.32086  -10.99172   14.60750
      H1     3.68909  -11.50569   14.11332
       H     2.01275  -14.47752   16.62996
       O     1.78618  -14.85181   15.78418
      H1     1.24375  -15.57821   15.94693
       H    -8.68313  -10.52193   17.95272
       O    -8.77038  -11.23434   17.31525
      H1    -9.30251  -11.82723   17.86550
       H    -2.71094  -16.82440   13.65531
       O    -3.06480  -17.50308   13.02161
      H1    -3.92516  -17.63173   13.44392
       H    -6.70106  -14.82464   19.95585
       O    -7.39605  -14.22019   19.53673
      H1    -6.93624  -13.48784   19.16131
       H    -2.25741   -9.32220   14.00814
       O    -2.47686   -8.35514   14.04535
      H1    -2.15529   -8.07248   14.93619
       H     2.98829  -20.16864   16.17677
       O     3.02452  -19.32540   16.58122
      H1     2.99980  -18.69987   15.83320
       H    -5.48619  -18.67609   17.18168
       O    -6.21748  -18.97799   17.76450
      H1    -6.68191  -18.14746   17.88428
       H    -0.60427  -12.49562   14.34968
       O     0.14645  -11.95694   14.65103
      H1     0.84024  -12.60588   14.53801
       H    -6.52385   -9.15886   20.16755
       O    -6.60336   -8.26114   19.86477
      H1    -6.50038   -8.38790   18.90374
       H    -8.63062  -14.30873   14.71655
       O    -9.43121  -14.70929   15.04520
      H1    -9.59963  -15.53423   14.50994
       H     0.24673   -7.85593   15.02532
       O    -0.09102   -7.18213   15.56855
      H1     0.19159   -6.45945   14.99508
       H    -0.07041  -11.28409   16.60511
       O    -0.18637  -10.76827   17.42579
      H1     0.66478  -10.24871   17.38382
       H     3.08099  -16.85894   19.04601
       O     2.15950  -16.94388   19.40266
      H1     1.72917  -17.22534   18.54207
       H    -5.69972  -18.56837   13.26947
       O    -5.55929  -17.78815   13.86573
      H1    -5.34984  -18.11030   14.79179
       H     4.03849  -20.22243   11.99365
       O     3.41845  -19.49859   12.09282
      H1     3.97805  -19.00367   12.74501
       H    -2.44933  -17.14025   19.47856
       O    -3.34660  -17.09049   18.98732
      H1    -3.90273  -16.78250   19.69284
       H     6.88543  -17.25838   15.65519
       O     6.67066  -17.40418   14.67724
      H1     5.68326  -17.43598   14.74672
       H     3.63503  -14.56782   15.73089
       O     4.54134  -14.81941   15.87878
      H1     4.92723  -13.92646   16.02896
       H    -3.57907  -18.16167   16.99865
       O    -4.03759  -18.62203   16.28715
      H1    -3.62148  -19.55233   16.36353
       H    -5.93858  -14.66429   14.81824
       O    -5.36393  -14.93705   15.58221
      H1    -6.14280  -15.23946   16.11303
       H     4.97181  -15.59591   19.18901
       O     4.88196  -16.20568   18.40102
      H1     4.61880  -15.60183   17.70569
       H    -3.17549  -13.92380   11.55308
       O    -2.27464  -13.66044   11.26803
      H1    -1.66833  -14.05269   11.90699
       H    -4.33140   -9.93672    9.74561
       O    -4.11255  -10.86987    9.79142
      H1    -3.70268  -10.89545   10.72185

