180
frame 11 | Written by MDAnalysis XYZWriter (release 2.4.3)
       H   -11.48977  -18.71193   -7.60799
       O   -11.67356  -18.44044   -8.52680
      H1   -11.54163  -19.34328   -8.95709
       H   -12.37607  -16.81677   -5.69914
       O   -11.52285  -17.23397   -5.80124
      H1   -10.91063  -16.78913   -5.18332
       H   -15.37737  -12.68352   -8.62653
       O   -16.20476  -12.85846   -8.04439
      H1   -16.07215  -13.79272   -7.75052
       H   -12.57041  -15.10997  -14.11119
       O   -12.26955  -15.69386  -14.85865
      H1   -12.82419  -16.45342  -14.64263
       H    -9.30472  -12.05827  -12.25518
       O    -8.73349  -11.45273  -12.81726
      H1    -8.32532  -12.12456  -13.33311
       H   -13.45206  -18.69351   -8.35025
       O   -14.33938  -19.15630   -8.14919
      H1   -14.34998  -19.98479   -8.67710
       H   -13.59463  -11.69002   -8.59985
       O   -13.63991  -12.55846   -9.04622
      H1   -12.88992  -12.97517   -8.59349
       H   -19.38908  -12.57682   -4.74191
       O   -18.49457  -12.93379   -4.98661
      H1   -18.57765  -12.91253   -5.96384
       H   -17.62432   -8.18778   -9.58857
       O   -18.43158   -8.14932  -10.10113
      H1   -18.71022   -9.10444  -10.06664
       H   -10.87896  -17.11244   -9.55801
       O   -10.22496  -16.52663  -10.05123
      H1   -10.05114  -15.75383   -9.46314
       H   -12.65404  -18.09506  -17.43489
       O   -12.72022  -18.92596  -16.97431
      H1   -11.97330  -19.37701  -17.43612
       H   -18.60721  -19.57709   -3.98773
       O   -17.91178  -19.46797   -4.69665
      H1   -17.13527  -19.00630   -4.27795
       H   -14.72606  -17.23075  -14.31299
       O   -13.88809  -17.60322  -14.01089
      H1   -13.58947  -17.15557  -13.23667
       H   -16.78578  -12.89219  -13.38273
       O   -16.62688  -12.92421  -12.41258
      H1   -15.73870  -13.28835  -12.39061
       H   -17.36511  -12.36589  -15.24527
       O   -16.44228  -12.63819  -15.35923
      H1   -16.50298  -13.21865  -16.15542
       H    -9.96646  -14.45010   -4.88354
       O   -10.09329  -13.84089   -5.58942
      H1   -10.19780  -13.04868   -5.11293
       H   -14.30477  -11.22145  -15.20364
       O   -14.44842  -10.34266  -14.78151
      H1   -15.17563  -10.65590  -14.21973
       H   -17.77129  -10.29216   -6.31683
       O   -17.11240   -9.93052   -5.64321
      H1   -17.66595   -9.99047   -4.77006
       H   -13.11921  -11.04917  -11.61404
       O   -13.15013  -11.15327  -12.57665
      H1   -13.53284  -10.21562  -12.75662
       H   -19.03269  -15.77352  -10.79939
       O   -19.82353  -16.31049  -10.49307
      H1   -19.62031  -17.13983  -10.94619
       H   -12.97939   -9.23452   -8.83972
       O   -12.74693   -9.89764   -9.48456
      H1   -11.87053   -9.64799   -9.78928
       H   -14.54672   -8.19922  -11.31409
       O   -14.99882   -8.72283  -10.67291
      H1   -14.25284   -9.24468  -10.30047
       H   -19.27294  -14.38101   -7.99390
       O   -19.00756  -14.54478   -7.06889
      H1   -19.84560  -14.82033   -6.66611
       H    -8.02299  -13.22703   -8.60708
       O    -8.47054  -14.04020   -8.37469
      H1    -9.22497  -13.70386   -7.80596
       H   -13.21231  -13.74485  -17.86816
       O   -14.16800  -13.76385  -17.94924
      H1   -14.33688  -12.82999  -17.71075
       H   -15.91815  -16.58524  -17.36250
       O   -15.74980  -17.48997  -17.06610
      H1   -14.80801  -17.54664  -17.21681
       H   -17.69256  -13.45255   -9.40405
       O   -18.34343  -13.36935  -10.13001
      H1   -18.67230  -12.46871   -9.91097
       H   -12.02885  -11.28465  -13.75175
       O   -11.20514  -11.37909  -14.31056
      H1   -10.44232  -11.54414  -13.70536
       H   -17.61230  -14.29760   -4.17719
       O   -17.40329  -15.25588   -4.08489
      H1   -17.17393  -15.44349   -3.15072
       H    -8.39385  -15.70031  -11.86028
       O    -8.04836  -14.95292  -11.35248
      H1    -7.67260  -15.46464  -10.59171
       H   -13.03596  -13.22526  -12.58569
       O   -12.59893  -13.99707  -12.80939
      H1   -11.80851  -13.90519  -12.27545
       H    -8.54834  -17.17149   -8.41203
       O    -7.73257  -17.44667   -8.01530
      H1    -7.15570  -16.98419   -8.62369
       H   -16.95431  -17.65130  -15.58986
       O   -17.47675  -17.52782  -14.79912
      H1   -17.35220  -18.40549  -14.36999
       H   -19.46038  -16.81597   -8.29558
       O   -18.60993  -17.34234   -8.02414
      H1   -18.50478  -16.94063   -7.15119
       H   -16.60778  -16.06552  -14.68083
       O   -16.10291  -15.33473  -14.17261
      H1   -16.38223  -14.56507  -14.69515
       H   -11.96685  -19.35130  -15.06836
       O   -11.17519  -19.52908  -14.55212
      H1   -10.74750  -18.69907  -14.62808
       H   -12.73046  -13.60440   -4.93049
       O   -13.48217  -14.21022   -4.81619
      H1   -14.16612  -13.57754   -4.51301
       H   -17.59299  -18.63575  -10.99645
       O   -17.06996  -18.76972  -10.18116
      H1   -17.57326  -18.25893   -9.56049
       H    -9.86923  -14.42307  -10.86100
       O   -10.52267  -13.73152  -11.04733
      H1   -10.77851  -13.37639  -10.19201
       H   -16.34376   -9.61801  -11.96373
       O   -16.81955   -9.48992  -12.77402
      H1   -17.36640  -10.22915  -12.96710
       H   -17.17262  -15.23134  -12.47558
       O   -17.80770  -15.28418  -11.75047
      H1   -17.65003  -14.37409  -11.43041
       H   -19.22163  -15.98995  -17.16857
       O   -19.31420  -16.04597  -16.15012
      H1   -18.72550  -16.79423  -15.98376
       H   -13.91588  -16.73897  -11.34419
       O   -12.98978  -16.89807  -11.52429
      H1   -12.60822  -16.13610  -11.07473
       H   -14.15647  -15.80154   -5.40089
       O   -14.51503  -16.70546   -5.44522
      H1   -14.85559  -16.56351   -6.32414
       H   -16.52621  -17.52615   -3.19943
       O   -15.81174  -18.10592   -3.44144
      H1   -15.42132  -17.57658   -4.14576
       H   -11.31926  -12.88407  -15.89986
       O   -11.66519  -13.34670  -16.72027
      H1   -11.91129  -14.18134  -16.27179
       H    -9.35567  -17.28168  -13.25931
       O    -8.93743  -17.30014  -12.37628
      H1    -9.59052  -17.37148  -11.73521
       H   -13.77597  -11.83657   -6.12142
       O   -13.12657  -11.17246   -6.25929
      H1   -13.51284  -10.35039   -5.96317
       H   -19.49837  -18.46298  -12.72271
       O   -18.70223  -18.01830  -12.42252
      H1   -18.52694  -17.28940  -13.07556
       H   -15.95637  -17.40185  -10.39915
       O   -15.61581  -16.49545  -10.54207
      H1   -16.42715  -16.21874  -11.05179
       H   -17.26842  -14.64149  -17.86251
       O   -16.59388  -14.69095  -17.16263
      H1   -15.84345  -14.26981  -17.64420
       H   -16.10848  -16.03679   -8.45682
       O   -16.02888  -15.54092   -7.63692
      H1   -16.97170  -15.36949   -7.41972
       H    -8.15323  -18.96997  -12.29630
       O    -7.61584  -19.80284  -12.39010
      H1    -6.76258  -19.58283  -12.78423
       H   -19.13438  -17.67240   -4.77516
       O   -19.37535  -16.76358   -5.07130
      H1   -18.66208  -16.16739   -4.77099
       H   -12.13465  -15.41003   -7.52953
       O   -11.74682  -14.54464   -7.65575
      H1   -11.06495  -14.47620   -6.92884
       H   -17.73190  -18.26325  -18.70305
       O   -17.97120  -17.60591  -19.35613
      H1   -17.09798  -17.40121  -19.62379
       H    -9.08595  -17.06630  -15.70366
       O    -9.82761  -17.10440  -14.96907
      H1   -10.49525  -16.45243  -15.28878
       H   -19.48788  -11.08024  -15.20848
       O   -19.06164  -11.77856  -15.72744
      H1   -19.78053  -12.45837  -15.68366
       H   -12.77043  -15.08891   -2.91871
       O   -12.11071  -15.53241   -2.35677
      H1   -11.79508  -14.79732   -1.78830
       H   -15.32067  -11.49512   -4.85260
       O   -15.51483  -12.42397   -4.98324
      H1   -16.22146  -12.33342   -5.62364

