180
frame 8 | Written by MDAnalysis XYZWriter (release 2.4.3)
       H   -10.43230   -2.17907    0.57355
       O    -9.79534   -1.63638    0.09035
      H1    -9.02385   -2.11468    0.34542
       H   -10.80513    2.24678   -1.76031
       O   -11.31518    1.73240   -1.13071
      H1   -11.18485    0.80996   -1.42354
       H   -13.26099    2.71608    3.66207
       O   -14.24771    2.78548    3.80355
      H1   -14.30075    3.74542    3.85585
       H   -13.39035    3.80926   -0.51735
       O   -13.45941    3.36761    0.34077
      H1   -14.19620    3.79983    0.76163
       H   -10.04934   -2.19559    8.44511
       O    -9.86884   -2.59828    7.54701
      H1   -10.13257   -3.52237    7.59056
       H   -13.30823    0.21552   -0.73011
       O   -14.22781    0.63571   -0.76502
      H1   -13.84231    1.51567   -0.62276
       H   -12.91582    3.40004    6.30301
       O   -13.77972    2.99163    6.55454
      H1   -14.09187    2.68100    5.66354
       H   -10.33276   -0.90885   10.50184
       O   -10.84396   -0.89722    9.69357
      H1   -11.63243   -0.48292   10.08041
       H   -12.39113   -3.43582    1.38071
       O   -11.46964   -3.62982    1.07692
      H1   -11.18691   -3.67330    2.00355
       H    -9.05796    5.10474    9.04475
       O    -8.97943    5.97206    9.57594
      H1    -9.11343    5.65779   10.52940
       H   -11.17152    1.79876   11.58775
       O   -10.56020    1.76616   10.84086
      H1   -11.14186    2.17970   10.11441
       H    -9.96662    3.56555    7.33532
       O    -9.18279    3.69985    7.86329
      H1    -8.93599    2.77234    8.11371
       H    -5.70211   -1.59511    3.44203
       O    -5.21134   -1.43150    2.58991
      H1    -5.95148   -1.40598    1.97303
       H    -7.40254    3.37285    7.26571
       O    -6.49691    2.94201    7.17987
      H1    -5.96682    3.76455    7.42453
       H   -11.90939    0.80486    8.15240
       O   -12.18688    1.72369    8.37650
      H1   -12.94456    1.96131    7.83807
       H    -6.31342    5.43469    0.11581
       O    -5.40614    5.32280   -0.23051
      H1    -4.87612    6.04724    0.03926
       H   -11.01835   -1.13600    3.63422
       O   -10.52491   -1.92534    3.49377
      H1   -11.19679   -2.61541    3.60458
       H    -6.69103    5.94684    4.81910
       O    -5.93774    6.02207    5.41222
      H1    -5.50120    6.81067    5.07431
       H   -11.37847    0.88817    0.80675
       O   -11.52198    0.34196    1.58737
      H1   -11.00102   -0.44192    1.32406
       H   -10.14076    5.54231    3.87172
       O    -9.59158    4.69601    3.84820
      H1    -9.78562    4.22706    3.00379
       H    -8.63350    1.84931    4.31815
       O    -9.42530    1.30733    4.10534
      H1    -9.41866    0.60382    4.75117
       H    -8.55029    0.54818    2.71405
       O    -7.94677    0.34263    1.94220
      H1    -8.58190   -0.23077    1.41226
       H   -17.38724    0.03638    0.15854
       O   -17.12877    0.90169    0.45403
      H1   -16.30723    0.73218    0.96259
       H    -7.12959   -3.32553    1.07652
       O    -7.30886   -2.56764    0.46370
      H1    -6.82434   -2.86225   -0.37694
       H   -14.64812   -2.60000    2.72562
       O   -13.93707   -2.22978    2.09740
      H1   -14.25190   -1.44361    1.71682
       H   -12.19151   -0.62578    6.06390
       O   -12.17046   -0.93062    6.96974
      H1   -11.41998   -1.51651    7.08720
       H   -12.67662    6.34052    8.42360
       O   -13.48742    5.99015    8.08531
      H1   -13.35072    5.97145    7.14288
       H    -8.24389    5.81401    3.68084
       O    -7.50025    6.34575    3.35855
      H1    -6.88742    5.66177    3.09225
       H   -14.52716    0.74678    0.96179
       O   -14.91938    0.61681    1.86769
      H1   -14.38424    1.23967    2.40617
       H   -16.74123    3.21249    2.12834
       O   -16.36123    3.56965    1.36365
      H1   -16.47706    2.84079    0.73333
       H   -15.94734    3.08237    7.49245
       O   -16.86245    2.86146    7.22620
      H1   -17.36437    3.53187    7.72939
       H    -4.25927   -0.50407    6.30946
       O    -5.20319   -0.31208    6.32881
      H1    -5.24989    0.54721    5.89525
       H    -9.13665    1.16940    9.19548
       O    -8.30721    1.39152    8.72278
      H1    -7.67768    1.24496    9.43499
       H    -6.90831    6.74013    6.87232
       O    -7.41880    7.20604    7.50566
      H1    -7.60327    6.61273    8.20097
       H   -11.59198    1.83070    2.76224
       O   -11.52532    2.61308    3.36998
      H1   -10.75652    2.18146    3.82588
       H    -6.07694    2.40184   -2.00826
       O    -6.85201    1.83586   -1.76675
      H1    -6.81170    1.75026   -0.80504
       H   -18.55942    1.07940    4.51501
       O   -17.98733    0.64940    3.80037
      H1   -17.16586    0.45006    4.25829
       H    -9.08364    3.50911    0.04121
       O    -9.51790    3.69290    0.91935
      H1   -10.25200    3.03224    1.07298
       H    -3.90693    3.04873    4.06269
       O    -3.98802    2.08232    3.96130
      H1    -4.97475    1.87921    4.14038
       H    -8.11173    2.96915   -2.03606
       O    -8.98653    3.35355   -1.90436
      H1    -8.81520    4.26480   -2.22471
       H   -16.00309    4.93938    4.04175
       O   -15.24085    5.47412    3.79820
      H1   -15.36525    5.43822    2.86170
       H   -12.93307   -1.09076    3.90300
       O   -12.68002   -0.26401    4.42576
      H1   -13.62944   -0.05087    4.68975
       H   -11.14905    4.21064    5.25485
       O   -11.41447    4.36669    6.16023
      H1   -10.99510    5.23069    6.28874
       H   -16.14256    1.07958    7.81894
       O   -16.15039    0.35608    8.48267
      H1   -15.24843    0.30105    8.80460
       H    -7.97890    6.74464    1.63995
       O    -7.75591    6.58224    0.71244
      H1    -7.93776    7.49332    0.33496
       H   -10.88053    7.79558    4.20919
       O   -10.93897    7.09793    3.55408
      H1   -11.86770    6.76006    3.80335
       H   -12.65780    7.18582    0.04685
       O   -12.80222    7.97803   -0.48812
      H1   -12.31736    7.72924   -1.26629
       H   -13.16007    4.57129    9.61582
       O   -13.19730    3.81757   10.17509
      H1   -13.06473    3.03278    9.59624
       H    -7.73758   -1.99781    4.81106
       O    -6.79011   -2.17499    4.73704
      H1    -6.48771   -1.36533    5.13636
       H   -14.03510    7.62069    5.36613
       O   -13.52771    6.72986    5.18420
      H1   -14.25585    6.29455    4.73585
       H   -10.10926    7.90006    6.07579
       O   -10.20345    7.07378    6.66968
      H1    -9.28951    6.90177    6.90533
       H    -5.60714    1.83654    0.88495
       O    -6.48669    2.19001    0.72151
      H1    -7.11391    1.65184    1.26098
       H   -15.14455   -2.69001    7.06107
       O   -14.19191   -3.06569    7.06281
      H1   -13.56744   -2.42305    7.31623
       H   -11.25267    5.92148    1.65293
       O   -12.19470    5.64719    1.45026
      H1   -12.03043    4.67835    1.24337
       H    -8.43555    0.31777    6.55810
       O    -8.58422   -0.43502    5.99066
      H1    -9.10372   -1.02801    6.55462
       H   -10.97587   -1.42861   -1.18818
       O   -11.64277   -0.93917   -1.75551
      H1   -11.83879   -1.68659   -2.32943
       H    -4.93286    1.51409    9.57169
       O    -5.57507    0.89449    9.28996
      H1    -5.90731    1.22274    8.42423
       H    -6.31209    3.65648    2.04688
       O    -6.01105    3.93667    2.90248
      H1    -5.07706    3.71547    2.74165
       H    -6.64310    2.56474    5.58126
       O    -6.77037    2.07518    4.73086
      H1    -6.84080    2.74199    4.01778
       H   -16.03664   -1.35621    4.46293
       O   -15.70065   -0.60039    4.87224
      H1   -16.08541   -0.79033    5.76717

