180
frame 10 | Written by MDAnalysis XYZWriter (release 2.4.3)
       H     7.18111   -1.49766    5.40558
       O     6.97768   -2.28712    5.92919
      H1     6.35792   -1.91374    6.59135
       H     9.82434    8.22666    1.85190
       O     9.57068    7.87706    2.69927
      H1     9.87244    8.53630    3.32231
       H     6.79611    1.85189   -2.78722
       O     7.51639    1.38228   -3.30833
      H1     7.03530    1.10985   -4.11493
       H    11.22868    6.75187    8.23353
       O    11.91383    6.54944    7.57416
      H1    12.01445    7.44756    7.10122
       H     6.17070   -3.13035    2.40890
       O     6.47246   -2.58036    1.67405
      H1     6.91661   -3.23918    1.09611
       H     9.60930    9.83255    5.28965
       O    10.02996    9.08031    5.63542
      H1     9.37669    8.32205    5.66024
       H     8.30456    3.07024    5.93049
       O     7.83821    2.26169    5.65665
      H1     7.96944    2.05658    4.75984
       H     6.22723    5.70601    9.61881
       O     6.66546    5.22039    8.89413
      H1     5.93252    4.95615    8.38392
       H     4.92935    2.68379    7.45800
       O     4.53255    3.58690    7.56491
      H1     3.83294    3.47884    8.27096
       H     4.10817    0.02806    4.91578
       O     3.49221   -0.45317    5.49631
      H1     4.05862   -0.88340    6.15497
       H     3.33335    7.49019    2.54881
       O     3.60919    8.19675    3.16958
      H1     2.75102    8.45562    3.53532
       H     7.97028    5.92496    0.41187
       O     7.88232    4.98973    0.77329
      H1     7.20309    4.69863    0.16595
       H     8.11887   -2.32184    3.66176
       O     8.78924   -1.63619    3.62399
      H1     9.50161   -2.19890    3.25372
       H     8.29927    0.18370   -2.01197
       O     7.83347   -0.41745   -1.33263
      H1     8.55286   -0.40246   -0.66099
       H    12.70328    6.72269    2.26407
       O    13.46031    6.94858    2.81082
      H1    13.89297    7.71735    2.39547
       H    16.03723    2.65838    2.12491
       O    15.83103    2.96890    3.06418
      H1    14.90239    2.77086    3.09412
       H    12.69414    3.73583    0.14730
       O    12.08770    3.62672    0.95300
      H1    12.68352    3.25500    1.67855
       H    11.38970    3.44320   -1.28052
       O    12.12188    3.35682   -1.94045
      H1    11.71878    3.75306   -2.71846
       H    10.57572    4.51899    3.75381
       O    10.02705    4.63296    2.95483
      H1    10.54404    4.10297    2.36923
       H     9.09696    5.33602    6.14912
       O     9.62211    4.53611    5.89739
      H1    10.32747    4.57834    6.48576
       H     6.70614    1.10284   -0.06134
       O     6.68407    2.06274    0.19343
      H1     7.37870    2.26108   -0.46662
       H     7.95008    6.52527   -2.41735
       O     7.62865    5.63928   -2.70066
      H1     7.71148    5.68192   -3.66763
       H     7.91080    6.86564    3.67088
       O     7.26696    6.12729    3.53342
      H1     7.69108    5.52066    2.91806
       H    15.75218    4.77726    2.55459
       O    15.80110    5.75895    2.41994
      H1    14.84804    5.96311    2.70302
       H     3.59975    3.18638    2.00487
       O     4.38326    3.53220    1.47755
      H1     5.07384    3.57407    2.13592
       H    10.64700   -2.41007    1.20644
       O    10.68042   -3.12255    1.86824
      H1    11.49195   -3.01562    2.40737
       H     9.11531   -2.09584   -1.83539
       O     9.14785   -2.93025   -2.35115
      H1     9.89887   -3.43958   -1.98617
       H     8.42016    3.74249   -1.95688
       O     8.66834    2.86317   -1.64338
      H1     8.76021    2.40045   -2.53294
       H     6.35140    1.23039    6.58643
       O     5.69454    1.16455    7.31716
      H1     6.22703    1.46116    8.10396
       H     2.71717    3.14970    3.93652
       O     2.11607    3.22303    3.19622
      H1     2.04075    2.36510    2.66923
       H     3.74071    6.33143    0.39206
       O     3.35571    5.94189    1.17104
      H1     3.72552    5.05475    1.24534
       H    11.61957    5.36538    1.07918
       O    11.44158    6.30920    0.87222
      H1    10.66201    6.56396    1.36341
       H    12.72903    3.64247    6.78338
       O    12.80157    4.27432    6.05504
      H1    12.44934    5.13274    6.43672
       H    10.48643    6.37135   -2.67853
       O    10.24590    7.31485   -2.54336
      H1    11.02579    7.83768   -2.80238
       H    11.75836   -0.67353   -2.00026
       O    12.25880   -1.38666   -1.50336
      H1    12.52929   -1.85178   -2.34278
       H     9.41179    0.35197    1.57400
       O     9.13810   -0.40190    1.12623
      H1     8.53421   -0.78774    1.80008
       H    11.68120    8.75184    5.24424
       O    12.59970    8.53929    5.17195
      H1    12.55293    7.85699    4.47895
       H    10.35575   -1.78856    7.68517
       O     9.65756   -2.42193    7.51345
      H1     8.99256   -1.83984    7.10103
       H     6.83958   11.24606    0.97898
       O     5.94840   10.84052    1.13009
      H1     6.37121   10.01648    1.52113
       H     5.46508   -0.48467    7.68490
       O     5.20174   -1.46684    7.61839
      H1     5.83261   -1.72243    8.34492
       H     8.71466    7.66657   -1.67138
       O     7.95258    7.71659   -1.12597
      H1     7.67625    8.63580   -1.30457
       H     4.75907    8.29370   -1.35574
       O     4.22224    7.50982   -1.02350
      H1     4.23170    7.00035   -1.88339
       H    12.31238    7.71936   -0.71521
       O    13.03517    8.40150   -0.75050
      H1    13.78741    7.74811   -0.71931
       H     5.32111   -0.94396    1.49425
       O     5.11919    0.00250    1.41749
      H1     4.21727    0.09626    1.81368
       H     8.51469    3.41903    2.63005
       O     7.96914    2.71803    2.89519
      H1     7.50794    2.39167    2.09904
       H     7.51327    7.35727    6.57932
       O     8.04368    6.81451    6.01112
      H1     7.47123    6.52206    5.25508
       H     4.42756    0.49957   -0.28571
       O     4.23772    0.70887   -1.31328
      H1     5.00166    1.25335   -1.47480
       H     9.55235    0.07762    4.32744
       O    10.03614    0.56477    4.95801
      H1     9.35838    1.00605    5.49984
       H     6.71442    8.59882    8.68764
       O     6.49310    8.03298    7.93391
      H1     6.64632    7.19868    8.39135
       H    11.13912    0.42501   -3.53218
       O    10.76629    0.79834   -2.67052
      H1    11.41756    1.45192   -2.29432
       H     6.47068    7.68482    2.64880
       O     6.24395    8.64045    2.72821
      H1     5.31649    8.50202    2.83717
       H     4.38318    3.79281   -1.28517
       O     5.24932    3.52037   -1.48289
      H1     5.42978    3.04655   -0.62438
       H    12.73769    3.25420    4.59463
       O    13.07630    2.88078    3.76058
      H1    13.01978    1.93926    3.96507
       H     4.25932    2.57189    5.43341
       O     4.70665    2.81879    4.58039
      H1     5.63745    2.95581    4.86440
       H     7.66812    2.28345    9.37512
       O     6.78034    2.55080    9.58024
      H1     6.82314    3.48786    9.37557
       H     4.72954    4.77257    5.64178
       O     5.10317    5.73382    5.68184
      H1     5.31817    5.82432    4.74320
       H    12.93264   -0.14996    2.15537
       O    13.15364    0.33796    2.92938
      H1    12.85131   -0.18821    3.62311
       H    14.82348    2.46115    5.69330
       O    14.54698    1.59553    6.07548
      H1    15.15328    1.61562    6.88381
       H     5.59391    1.21985    4.20087
       O     5.95912    0.32806    4.22680
      H1     5.79320    0.05845    3.29461
       H     9.71894    1.07131    8.20539
       O     9.12854    1.31086    8.91299
      H1     9.78936    1.73862    9.49727

