180
frame 11 | Written by MDAnalysis XYZWriter (release 2.4.3)
       H   -16.82394    0.32241  -18.64865
       O   -15.87375    0.17832  -18.54547
      H1   -15.64482    0.13514  -19.48464
       H   -19.92464   -9.06007  -13.90016
       O   -19.61673   -9.15999  -14.80854
      H1   -18.92328   -8.49587  -15.01408
       H    -8.89872   -8.30628  -17.37155
       O    -9.81549   -8.02835  -17.63420
      H1    -9.65941   -7.07834  -17.85640
       H   -15.08475    3.67442  -13.39932
       O   -15.36545    2.77444  -13.10159
      H1   -14.58620    2.37004  -12.75748
       H   -18.99633    0.17881  -18.39341
       O   -18.45966    0.96372  -18.62836
      H1   -18.86436    1.15276  -19.49668
       H   -17.14565   -3.80364  -14.21774
       O   -17.95925   -3.78214  -14.82596
      H1   -18.60519   -3.31900  -14.25215
       H   -13.37513   -7.25734  -12.17810
       O   -12.85106   -8.06324  -12.27668
      H1   -12.62393   -8.06678  -13.18253
       H   -13.37972   -1.88408  -13.94841
       O   -13.75823   -0.95063  -13.98615
      H1   -14.60670   -1.14998  -14.50697
       H    -9.13245   -6.61876  -13.46186
       O    -9.47355   -7.12782  -12.67537
      H1   -10.02114   -7.74551  -13.22438
       H   -11.57110   -6.82283  -10.99858
       O   -11.56029   -5.87563  -10.66273
      H1   -12.32699   -5.76816  -10.13911
       H   -16.43447   -3.76154  -18.30458
       O   -16.35277   -4.66605  -18.58159
      H1   -16.30572   -5.06215  -17.68201
       H   -10.45573   -9.52869  -18.57142
       O   -11.12381  -10.21048  -18.75217
      H1   -11.85281   -9.81570  -18.23087
       H   -18.68801  -16.00299  -19.23163
       O   -18.95788  -15.22347  -18.74568
      H1   -19.39344  -14.63514  -19.37179
       H   -18.45088   -0.35520  -11.37721
       O   -19.41006   -0.63521  -11.25744
      H1   -19.72798    0.28674  -11.49482
       H   -17.62432   -8.18778   -9.58857
       O   -18.43158   -8.14932  -10.10113
      H1   -18.71022   -9.10444  -10.06664
       H   -11.56074   -2.79282  -10.41831
       O   -11.22825   -2.82144  -11.30695
      H1   -10.49931   -3.44953  -11.42707
       H   -16.78578  -12.89219  -13.38273
       O   -16.62688  -12.92421  -12.41258
      H1   -15.73870  -13.28835  -12.39061
       H   -16.37163   -1.35003  -18.12935
       O   -16.82311   -2.05065  -17.69396
      H1   -16.79907   -1.71538  -16.72133
       H   -17.40832   -2.95808  -10.75442
       O   -17.34870   -3.93757  -10.68142
      H1   -17.02138   -4.11549   -9.80875
       H   -19.62317   -4.39626  -12.23361
       O   -19.58660   -4.90593  -11.40768
      H1   -18.75560   -4.53373  -11.08648
       H   -13.69160    0.11256  -12.60335
       O   -13.77069    0.57126  -11.73533
      H1   -13.12026    1.26746  -11.84650
       H   -17.36511  -12.36589  -15.24527
       O   -16.44228  -12.63819  -15.35923
      H1   -16.50298  -13.21865  -16.15542
       H    -9.52907   -4.60841  -15.26773
       O    -9.36922   -5.50310  -14.92495
      H1    -8.88591   -5.94153  -15.58414
       H   -14.30477  -11.22145  -15.20364
       O   -14.44842  -10.34266  -14.78151
      H1   -15.17563  -10.65590  -14.21973
       H   -13.11921  -11.04917  -11.61404
       O   -13.15013  -11.15327  -12.57665
      H1   -13.53284  -10.21562  -12.75662
       H   -17.12573   -7.86152  -12.06131
       O   -17.34346   -6.91506  -12.17907
      H1   -17.97794   -6.87218  -11.41981
       H   -14.54672   -8.19922  -11.31409
       O   -14.99882   -8.72283  -10.67291
      H1   -14.25284   -9.24468  -10.30047
       H   -13.21231  -13.74485  -17.86816
       O   -14.16800  -13.76385  -17.94924
      H1   -14.33688  -12.82999  -17.71075
       H   -18.67914   -1.56209  -17.28338
       O   -19.60807   -1.17272  -17.33099
      H1   -20.11591   -1.97369  -17.59545
       H   -12.02885  -11.28465  -13.75175
       O   -11.20514  -11.37909  -14.31056
      H1   -10.44232  -11.54414  -13.70536
       H   -17.38728    2.35550  -15.22362
       O   -17.44510    1.69475  -14.47646
      H1   -16.79731    2.17050  -13.91358
       H   -14.36074    3.77424  -16.95496
       O   -15.01814    4.43662  -16.70973
      H1   -15.88138    3.92258  -16.74492
       H   -14.25559   -8.31996  -18.82346
       O   -14.53731   -8.24695  -19.73403
      H1   -15.36797   -7.85503  -19.63285
       H   -12.67274   -0.29780  -15.38399
       O   -12.32812   -0.00084  -16.20245
      H1   -12.29450   -0.75588  -16.86616
       H   -16.02551   -3.79174  -12.65652
       O   -15.69300   -3.95839  -13.57150
      H1   -14.85162   -3.50297  -13.43642
       H   -13.09401   -8.77203  -16.23359
       O   -13.18927   -9.09628  -17.17428
      H1   -13.57481   -9.93785  -16.90224
       H    -8.75323   -3.76441  -19.04845
       O    -8.86468   -2.99067  -18.53198
      H1    -8.22862   -3.12188  -17.80075
       H   -11.14358    0.24344  -14.55626
       O   -11.04361    0.63725  -13.68183
      H1   -11.63204    1.44735  -13.67125
       H   -18.22721    3.68279  -16.60890
       O   -17.43615    3.25237  -16.98425
      H1   -17.85531    2.61182  -17.59897
       H   -16.34376   -9.61801  -11.96373
       O   -16.81955   -9.48992  -12.77402
      H1   -17.36640  -10.22915  -12.96710
       H   -18.00872   -5.11105  -18.53375
       O   -18.93843   -5.42667  -18.56442
      H1   -19.39171   -4.83321  -17.92810
       H   -17.64802   -9.77137  -18.02802
       O   -17.66413  -10.71312  -18.13515
      H1   -18.01653  -11.06843  -17.28954
       H   -15.76026   -8.98245  -16.02628
       O   -16.38484   -8.36716  -16.43171
      H1   -15.81658   -7.54714  -16.44594
       H   -11.96792   -3.14840  -13.32662
       O   -12.73395   -3.48005  -13.82136
      H1   -12.47339   -4.20263  -14.40049
       H   -16.10717   -0.87833  -10.29398
       O   -16.36009   -1.17573  -11.21441
      H1   -15.80281   -0.67705  -11.78549
       H   -16.21657   -5.48516  -15.67889
       O   -15.48436   -5.88673  -16.24052
      H1   -14.68194   -5.60714  -15.77810
       H    -9.87938   -2.60996  -16.87264
       O   -10.06687   -2.75378  -15.95301
      H1    -9.81357   -1.93265  -15.49553
       H   -18.69237    2.95977  -13.90771
       O   -18.81887    3.92072  -13.73942
      H1   -19.66667    3.97449  -13.35108
       H   -18.04528   -6.67167  -13.74625
       O   -18.33680   -6.59272  -14.65656
      H1   -18.28404   -5.60118  -14.70372
       H   -14.69282  -11.17075  -18.85883
       O   -15.00952  -11.23810  -17.93444
      H1   -15.93312  -11.00706  -18.11447
       H   -12.33463   -5.57617  -16.45999
       O   -12.38005   -5.66329  -15.46246
      H1   -11.52863   -6.12179  -15.35851
       H   -14.28192   -5.81336   -9.97033
       O   -13.76164   -5.52032   -9.23569
      H1   -13.72890   -6.35955   -8.71913
       H   -17.26842  -14.64149  -17.86251
       O   -16.59388  -14.69095  -17.16263
      H1   -15.84345  -14.26981  -17.64420
       H   -12.42990    2.84226  -16.55907
       O   -12.94420    2.61577  -17.33007
      H1   -13.17411    1.71720  -17.07532
       H   -11.35122   -5.54147  -19.46436
       O   -10.91474   -5.34494  -18.61115
      H1   -10.07473   -4.97336  -18.98940
       H   -15.73448   -6.29909  -12.13438
       O   -14.77209   -5.99233  -11.85106
      H1   -14.66215   -5.17672  -12.40331
       H   -19.48788  -11.08024  -15.20848
       O   -19.06164  -11.77856  -15.72744
      H1   -19.78053  -12.45837  -15.68366
       H   -17.18230   -1.68172  -14.70371
       O   -16.57111   -1.07369  -15.14135
      H1   -16.86796   -0.19490  -14.93094
       H   -19.64100   -0.53863  -15.28958
       O   -19.35290   -0.09312  -14.50278
      H1   -18.74969    0.57120  -14.76824
       H   -10.92638   -9.49662  -14.92951
       O   -10.75967   -8.52710  -14.87814
      H1   -10.47316   -8.29643  -15.74447

