180
frame 4 | Written by MDAnalysis XYZWriter (release 2.4.3)
       H   -16.61495   -7.23271   -3.08141
       O   -16.03978   -6.98658   -3.80320
      H1   -16.15485   -7.76212   -4.39810
       H   -12.63181   -7.62292   -1.73508
       O   -12.18029   -8.46836   -1.62394
      H1   -11.35306   -8.36880   -2.14120
       H   -16.74469   -6.02560    0.28674
       O   -16.37517   -5.85627    1.13316
      H1   -16.13599   -6.79674    1.29879
       H   -15.01762  -13.68237   -7.84884
       O   -15.81516  -13.76916   -7.36759
      H1   -15.88109  -14.72791   -7.13980
       H    -7.24452  -12.27247    2.12225
       O    -7.47795  -12.68442    1.25165
      H1    -7.02584  -13.54982    1.43004
       H    -8.67726   -9.70979    1.71459
       O    -9.19396  -10.10526    2.49839
      H1    -9.11806   -9.33988    3.13375
       H   -11.12813  -14.13510    0.87577
       O   -11.53411  -13.32888    1.20528
      H1   -11.25306  -13.21794    2.17709
       H    -9.82073  -15.01210    3.68381
       O    -9.25154  -14.23048    3.85611
      H1    -9.71933  -13.55903    3.32759
       H   -12.05421  -12.06064   -1.76981
       O   -11.84070  -12.47691   -2.65906
      H1   -12.16420  -13.37465   -2.61846
       H    -9.64148  -14.26061   -2.29040
       O    -9.43934  -15.17202   -2.07875
      H1   -10.06689  -15.40826   -1.38840
       H   -14.47001  -18.56951    4.09312
       O   -14.13293  -19.40529    4.41661
      H1   -14.82938  -19.86225    4.91982
       H   -18.20041  -13.59787   -1.79836
       O   -17.80664  -13.93556   -0.96581
      H1   -18.57216  -14.08492   -0.40906
       H   -16.89297  -13.91093    6.12225
       O   -17.66025  -13.62763    6.73805
      H1   -17.64435  -12.65074    6.62769
       H   -13.23326  -10.77871    0.36767
       O   -14.00581  -10.75783    0.99008
      H1   -14.75249  -10.97491    0.41785
       H    -9.64656  -11.02070   -7.19171
       O   -10.48716  -10.65560   -6.80884
      H1   -10.81454  -11.44852   -6.18814
       H   -13.02325   -9.07885   -3.29723
       O   -13.09191   -9.29468   -4.25168
      H1   -14.04217   -9.13012   -4.37090
       H   -18.23010   -8.08274    4.45316
       O   -18.99473   -8.08136    5.03569
      H1   -19.36585   -7.23521    4.81395
       H   -17.96639  -10.83444    7.76173
       O   -17.36222  -11.06369    7.00079
      H1   -17.88239  -10.66439    6.22635
       H   -16.04857   -8.67927    2.66572
       O   -15.57711   -8.48793    1.82101
      H1   -14.88943   -9.16503    1.73361
       H   -11.86143  -15.66154    3.15043
       O   -11.13951  -16.19736    3.52234
      H1   -11.35737  -16.24127    4.45733
       H   -19.49136  -13.55245   -4.29493
       O   -19.06737  -13.14924   -3.53225
      H1   -19.01858  -12.24145   -3.79612
       H   -14.89459  -13.07016    0.00423
       O   -15.27848  -12.72528   -0.85497
      H1   -16.24907  -12.85089   -0.70375
       H    -9.58790   -7.58568   -2.36282
       O    -9.67324   -8.55944   -2.47926
      H1    -9.81993   -8.53458   -3.48371
       H   -11.74613  -12.54411   -4.56335
       O   -11.57196  -12.78972   -5.48716
      H1   -12.38931  -12.49201   -5.93945
       H   -16.80770  -16.38420   -2.52227
       O   -17.36100  -16.85445   -3.20200
      H1   -16.92521  -17.72606   -3.04788
       H   -19.33076  -10.61765    1.43789
       O   -18.94675  -11.23294    0.81636
      H1   -19.57115  -11.31227    0.07851
       H   -11.48034   -8.74076   -5.09559
       O   -10.58541   -8.33490   -5.26452
      H1   -10.09248   -9.01660   -5.75775
       H   -10.11450  -11.48196    3.21445
       O   -10.76702  -12.14743    3.53047
      H1   -10.42158  -12.20574    4.43457
       H   -16.94228  -11.30276    1.39501
       O   -16.41529  -11.75562    2.06539
      H1   -17.11369  -11.99160    2.70477
       H   -10.72540  -11.38532   -0.06334
       O   -11.40406  -10.70831   -0.20142
      H1   -10.90509  -10.00878   -0.63700
       H    -9.63189  -17.21966    3.36158
       O    -8.72709  -17.40882    3.14458
      H1    -8.32681  -16.55801    2.99023
       H   -14.63242  -15.68027    2.77321
       O   -14.56914  -15.71500    3.77505
      H1   -14.71467  -14.77317    3.93056
       H   -14.67960  -14.33553   -3.57344
       O   -14.07769  -14.39713   -2.79283
      H1   -14.40647  -13.58133   -2.29994
       H   -12.98134  -12.57809    5.88755
       O   -13.29746  -13.31903    5.34460
      H1   -12.86538  -14.09069    5.69115
       H   -14.97354  -15.37524   -1.63258
       O   -15.69569  -15.93848   -1.30768
      H1   -16.31004  -15.23834   -0.94897
       H    -9.25013  -12.94642    6.21073
       O   -10.19464  -13.04085    6.10880
      H1   -10.16699  -13.69615    5.40111
       H   -15.01196  -12.92683    4.82121
       O   -15.84086  -13.38331    4.69101
      H1   -16.50376  -12.70261    4.60278
       H   -10.53168   -8.54976    0.93612
       O   -10.74650   -7.66774    0.67334
      H1   -11.33296   -7.78591   -0.09157
       H   -14.62822  -17.55188   -0.85977
       O   -14.43589  -18.48265   -0.78672
      H1   -14.18420  -18.72673   -1.73619
       H   -17.02518  -18.40902    3.19176
       O   -17.50031  -18.97532    2.50737
      H1   -16.81352  -19.54004    2.21607
       H   -18.09970   -8.41483   -1.09029
       O   -17.32414   -8.08742   -0.56596
      H1   -17.21369   -8.75351    0.13372
       H   -11.24994   -6.66926    2.11542
       O   -11.26532   -6.03572    2.90361
      H1   -12.15808   -6.22759    3.27791
       H   -15.76511  -10.33523    4.03076
       O   -16.36512   -9.65854    4.40371
      H1   -15.96664   -9.47077    5.29509
       H   -13.03898  -18.12348    0.27061
       O   -12.62941  -17.70977    1.08286
      H1   -11.92181  -18.31629    1.17316
       H   -13.07366   -5.73445   -3.12116
       O   -13.00342   -5.97549   -2.14108
      H1   -12.87757   -5.03197   -1.87351
       H   -11.37612  -16.54641    0.66905
       O   -10.63230  -15.86457    0.49806
      H1    -9.84297  -16.34736    0.90138
       H   -18.13381  -13.17443    3.38795
       O   -18.28326  -12.42857    3.96968
      H1   -19.24734  -12.45722    4.08420
       H   -13.20404   -8.31323    5.68055
       O   -12.65883   -8.18580    4.88336
      H1   -12.75922   -9.01201    4.36807
       H   -12.85376  -11.48113    3.63561
       O   -13.37560  -10.65893    3.62307
      H1   -13.76014  -10.79862    2.71331
       H   -13.67826  -18.77533   -3.55300
       O   -13.93357  -19.56770   -3.08054
      H1   -14.81933  -19.80852   -3.47326
       H   -15.77695  -12.09226   -3.86028
       O   -15.24082  -11.29828   -3.73436
      H1   -14.92224  -11.37302   -2.83011
       H   -14.47985  -10.64620   -7.54101
       O   -14.06287  -11.16067   -6.75575
      H1   -14.36287  -10.70146   -5.95988
       H   -15.85375  -16.42419    4.47528
       O   -16.56648  -17.16471    4.42269
      H1   -16.91544  -17.12963    5.31614
       H   -13.64429  -13.65564    1.29260
       O   -14.54814  -13.94616    1.40680
      H1   -15.08833  -13.24165    1.83458
       H   -17.81136  -15.91970    3.37701
       O   -18.37964  -15.18194    3.21413
      H1   -19.22206  -15.50227    3.50088
       H   -19.19535  -16.83259   -0.64852
       O   -19.35005  -17.58887   -1.23769
      H1   -18.71768  -17.44838   -2.01696
       H   -16.56173   -9.32297   -6.08255
       O   -15.89285   -8.66683   -5.86104
      H1   -16.14927   -7.95961   -6.48720
       H   -18.02844  -17.44339   -4.72465
       O   -17.86331  -17.84870   -5.58187
      H1   -17.00239  -17.40880   -5.78139
       H   -13.30706  -16.14741   -3.38630
       O   -12.92634  -16.93908   -3.75998
      H1   -11.98821  -16.78498   -3.73165
       H   -17.17496  -13.61536   -3.84743
       O   -16.27483  -13.83051   -4.15819
      H1   -16.42875  -13.77875   -5.13209

