180
frame 3 | Written by MDAnalysis XYZWriter (release 2.4.3)
       H    -3.47021   -6.05969    4.49058
       O    -4.37366   -6.41257    4.28787
      H1    -4.75053   -6.29012    5.18794
       H    -1.75248  -14.91874    2.09620
       O    -2.11355  -14.04275    1.84054
      H1    -2.54863  -13.79968    2.68879
       H     0.99389  -12.59197   -4.59885
       O     1.52791  -12.88904   -3.82411
      H1     1.01862  -13.58902   -3.39740
       H     1.13727   -9.98016    9.75968
       O     0.67777   -9.24101   10.18705
      H1     0.02009   -9.69293   10.67293
       H     2.16259  -14.07882    7.34891
       O     1.21004  -14.02975    7.30778
      H1     1.03151  -14.26128    6.36506
       H    -3.64814  -11.54565    7.48475
       O    -3.52601  -11.06311    6.59872
      H1    -2.84187  -10.37999    6.79356
       H    -1.40730  -15.46491    8.22223
       O    -1.01586  -15.80475    7.41158
      H1    -0.19487  -15.27379    7.51393
       H    -6.04649  -11.96333    1.04274
       O    -5.60086  -11.75769    0.20546
      H1    -4.86682  -11.23140    0.60512
       H    -7.56369  -12.72139    2.16855
       O    -7.81557  -13.39547    1.49072
      H1    -7.24312  -14.17309    1.71260
       H     4.22990  -11.76688    7.53130
       O     4.52513  -11.97867    8.43432
      H1     4.33953  -11.08552    8.79929
       H    -7.47208  -10.46828    3.00527
       O    -6.96827  -11.26767    3.26445
      H1    -6.78937  -11.06071    4.15717
       H     0.04953  -17.48021    7.00193
       O     0.56856  -18.21970    6.63329
      H1     0.20063  -18.55475    5.88301
       H    -0.95423   -9.61390    5.55396
       O    -1.58560   -9.52076    4.84843
      H1    -1.33586   -8.60743    4.54063
       H    -2.12750  -13.43621   -1.40520
       O    -2.61500  -13.78951   -2.17088
      H1    -2.84176  -12.94071   -2.61512
       H     0.83038  -12.86114    2.13574
       O     0.53767  -13.63716    1.78023
      H1    -0.44533  -13.67659    2.05284
       H    -0.95195   -6.50550    2.93472
       O    -1.36939   -6.54846    3.85887
      H1    -0.60557   -6.39499    4.39061
       H    -1.49509  -12.32394    3.83187
       O    -1.01030  -11.60931    3.31802
      H1    -1.20823  -10.84882    3.93028
       H    -1.00586   -5.91911    6.62557
       O    -1.62148   -6.50092    7.08381
      H1    -2.51127   -6.29533    6.69945
       H     4.79837   -9.34745    6.12236
       O     4.02677   -8.91789    5.78968
      H1     3.36389   -9.55541    5.60789
       H     2.30891   -8.15671    6.46768
       O     1.39641   -7.88783    6.50547
      H1     1.22321   -8.13736    5.55791
       H    -5.50985  -15.39214    1.95387
       O    -6.18395  -15.16817    2.63308
      H1    -5.78040  -15.49097    3.48184
       H     3.40494   -7.62972    0.33206
       O     3.66579   -8.34014    0.96562
      H1     3.99146   -7.80861    1.68241
       H     2.76134  -16.66245   -0.42793
       O     3.02378  -15.86414    0.01238
      H1     2.39005  -15.22773   -0.47649
       H    -4.48489   -9.04987    8.48063
       O    -5.47517   -8.92306    8.39600
      H1    -5.76089   -9.68822    8.86181
       H     3.46597  -17.89750    4.70806
       O     3.44136  -16.92647    4.56018
      H1     3.90460  -16.49660    5.29069
       H    -2.74693  -18.54827    1.32393
       O    -3.25718  -18.32295    2.15708
      H1    -2.52771  -18.31605    2.78328
       H    -2.43790   -9.34345    9.13781
       O    -3.13157   -9.23831    9.79299
      H1    -2.67658   -8.52041   10.24055
       H    -2.41141   -7.12533   -1.67461
       O    -2.61147   -7.43506   -0.81107
      H1    -2.71922   -6.60264   -0.40081
       H     2.77515   -9.83885    1.55458
       O     2.54920  -10.60396    2.12885
      H1     3.31551  -10.72923    2.68882
       H    -1.06766  -10.56670    8.12634
       O    -1.36950   -9.74935    7.76714
      H1    -0.55995   -9.24538    7.75631
       H    -3.56571  -13.34683    9.07532
       O    -4.31365  -12.80518    8.76494
      H1    -4.79014  -13.34646    8.12502
       H    -1.59106  -14.05529   10.42759
       O    -1.85182  -13.29613    9.87503
      H1    -2.20476  -12.67513   10.52851
       H    -1.38700  -12.99321    0.48614
       O    -1.05740  -12.69795   -0.37028
      H1    -0.40661  -13.39417   -0.64589
       H    -0.85427  -14.38535    4.51155
       O    -0.38225  -13.68291    4.93047
      H1    -0.01417  -13.27001    4.10353
       H     5.92729  -11.66644    3.28563
       O     5.38077  -10.91851    3.42756
      H1     5.43096  -10.53774    2.50691
       H    -5.35710  -16.25139    5.80197
       O    -5.36286  -16.59031    4.93953
      H1    -6.24840  -16.94351    4.84445
       H     2.60324   -5.95837    8.65347
       O     1.76408   -5.85636    8.20302
      H1     1.71782   -6.71834    7.74553
       H    -5.42871  -12.61668   -1.15521
       O    -5.48046  -13.33800   -1.84257
      H1    -4.55140  -13.65580   -1.95601
       H    -2.46156   -4.34111    2.00331
       O    -2.39195   -4.02640    2.92724
      H1    -1.90846   -4.78387    3.35141
       H    -0.48303  -17.38881    0.68776
       O    -0.39338  -16.45181    0.52190
      H1     0.47359  -16.33716    0.88067
       H    -7.52282   -8.36769    0.11015
       O    -7.59777   -9.34007    0.11793
      H1    -6.68902   -9.57028    0.21138
       H    -2.62174  -15.02801    6.37197
       O    -3.58023  -14.76499    6.60143
      H1    -3.66314  -13.91942    6.12821
       H     4.45235   -6.33467    3.63004
       O     4.75522   -7.23179    3.45386
      H1     4.56525   -7.83195    4.18702
       H     3.90109  -15.57714    7.35978
       O     3.98997  -14.81389    6.75274
      H1     4.98406  -14.85474    6.63239
       H    -0.87830  -11.10421    0.47701
       O    -0.40502  -10.28631    0.62779
      H1    -0.21693  -10.39772    1.58503
       H     1.41443  -13.70702   -0.60744
       O     1.09811  -14.29649   -1.28257
      H1     0.61654  -14.97307   -0.71519
       H     2.10566   -7.11774   -0.92681
       O     2.84535   -6.55521   -0.78106
      H1     3.27288   -6.48689   -1.63289
       H     1.04764   -9.19148    3.41014
       O     1.17831   -8.34083    3.82602
      H1     1.07907   -7.74956    3.04310
       H    -3.47198  -16.85268    0.89287
       O    -3.68327  -16.00213    0.39022
      H1    -3.09477  -15.37166    0.81963
       H    -5.45946  -10.53823    5.58754
       O    -6.35218  -10.46900    5.95610
      H1    -6.14423   -9.88431    6.70207
       H    -0.44513  -12.42342    9.23777
       O     0.20271  -11.85882    8.75180
      H1     0.42174  -12.42324    7.99630
       H    -2.70471  -18.86526    5.46609
       O    -2.71101  -17.88481    5.45725
      H1    -3.67127  -17.63190    5.20116
       H    -3.47482  -12.01627    4.71801
       O    -3.56942  -12.85965    4.21473
      H1    -4.09872  -12.57348    3.47544
       H    -5.26974   -8.63237   -1.27361
       O    -4.79334   -9.04461   -0.54942
      H1    -4.09807   -8.39225   -0.55991
       H     2.30450  -18.01963    2.28907
       O     1.80074  -17.15515    2.43452
      H1     2.26720  -16.76417    3.21596
       H     3.47866  -12.19116   -1.98875
       O     3.02021  -11.36755   -1.70504
      H1     2.11661  -11.60701   -2.01042
       H    -1.62046  -16.55376    4.21980
       O    -1.87032  -15.62425    3.94992
      H1    -2.68770  -15.53151    4.47874
       H    -0.00560   -7.26840    0.90117
       O     0.13483   -6.61323    1.61007
      H1     0.45270   -5.85077    1.11684
       H    -0.03758  -19.78700    3.41655
       O    -0.36106  -18.86588    3.42026
      H1     0.45478  -18.40004    3.07140
       H     0.26841   -9.01349   -0.33647
       O     0.32133   -8.12152   -0.84679
      H1    -0.59265   -7.80496   -0.88378

