180
frame 1 | Written by MDAnalysis XYZWriter (release 2.4.3)
       H    -3.51261    8.29768    9.99295
       O    -3.05425    7.48337    9.65507
      H1    -2.60667    7.84057    8.87834
       H     4.92069    8.64336   14.33197
       O     4.55671    8.06049   15.02548
      H1     4.59000    7.24611   14.47683
       H    -5.31940    5.02210   16.68528
       O    -5.25505    5.38606   17.62319
      H1    -4.37154    5.15602   17.89411
       H    -2.29154    4.07743   18.60896
       O    -2.03257    4.35775   17.74207
      H1    -1.25779    3.82356   17.64769
       H     0.58272   15.25641   16.68843
       O     1.28413   15.48768   17.32913
      H1     0.77271   15.42110   18.15217
       H     0.50157   11.41306   13.49705
       O     0.37926   11.85176   12.67030
      H1     0.88325   11.35205   12.06876
       H    -8.41698   14.06855   14.29038
       O    -9.00313   14.80966   14.20669
      H1    -9.40462   14.81545   13.33169
       H    -3.31554   11.44985   12.54889
       O    -2.48978   10.97905   12.74551
      H1    -1.73903   11.61160   12.59082
       H     2.37241    9.50656   13.10148
       O     3.14245   10.08061   12.94236
      H1     3.12897   10.67181   13.67134
       H     3.44718   10.17947   17.77205
       O     4.06033   10.95746   17.62227
      H1     3.79907   11.34116   16.74399
       H     2.81532   12.68160   12.69169
       O     3.42479   13.15610   13.26831
      H1     4.23193   12.61192   13.24794
       H    -3.54159    7.71536   18.49319
       O    -3.01178    7.55283   19.34075
      H1    -3.12421    6.61098   19.58745
       H     3.89828    8.18689    9.88174
       O     3.96647    9.05224   10.34093
      H1     3.87485    8.72814   11.25115
       H    -0.44181   12.33292    8.66448
       O    -0.67549   12.35232    9.61444
      H1    -0.00519   11.70245    9.86309
       H    -6.13178   14.95071   12.75024
       O    -6.21973   14.79315   13.69538
      H1    -5.51623   15.43314   14.00714
       H     3.23375    6.22030   11.69491
       O     3.48222    6.82025   12.37330
      H1     2.69336    7.23144   12.70625
       H    -0.84526   15.20027   15.63579
       O    -0.10189   15.09283   15.02339
      H1    -0.51820   15.17944   14.15508
       H     0.91945    5.49039   10.93086
       O     1.75219    4.98577   10.70418
      H1     2.00730    4.57564   11.51218
       H    -2.16967   10.26091   18.80904
       O    -2.78352   10.87564   19.19196
      H1    -2.15479   11.58432   19.40796
       H    -8.78334   11.79037   11.76715
       O    -9.35102   12.36041   12.35003
      H1   -10.02815   11.75887   12.71941
       H    -6.58027   10.91836   14.98061
       O    -6.40502   10.20746   15.61007
      H1    -6.23732    9.41907   15.05061
       H    -6.48062    6.98446   13.90682
       O    -6.49987    7.60581   14.68353
      H1    -7.27691    7.27625   15.17749
       H     0.65498   16.63708   14.69751
       O     1.11593   17.35533   14.26165
      H1     1.44972   16.85231   13.44006
       H    -8.24013   10.02667   18.21432
       O    -8.33371    9.59442   17.36326
      H1    -7.71059   10.12142   16.84121
       H     0.17996    7.07254   15.93058
       O    -0.12825    7.32890   15.07310
      H1    -0.98054    6.90978   15.22746
       H    -5.74407   16.40336   18.29255
       O    -6.11191   16.10972   17.45939
      H1    -5.99349   16.93306   16.89503
       H    -6.85488   13.17452   13.89289
       O    -7.35446   12.41980   14.27590
      H1    -8.11601   12.20994   13.67496
       H     1.26455   11.23919   15.39692
       O     0.56434   10.57007   15.28748
      H1     0.90261    9.75707   15.67879
       H     0.55498    5.67492   15.08855
       O     0.94140    4.81353   15.36241
      H1     1.79009    5.09952   15.74462
       H    -2.38431   13.52904   17.45106
       O    -1.61911   14.09919   17.28948
      H1    -1.01088   13.33222   17.26229
       H    -1.55782    7.60683   10.29313
       O    -0.65404    7.36657   10.65418
      H1    -0.02808    7.46665    9.92066
       H    -7.65770   11.00803    9.99046
       O    -7.38100   10.77182   10.90446
      H1    -6.66674   11.40361   11.10939
       H    -0.69532    5.95665   17.84528
       O    -0.30088    6.81116   17.79621
      H1     0.55481    6.55285   18.15393
       H     2.41187    8.13751   17.33131
       O     2.38323    8.78601   16.62869
      H1     3.15874    8.50624   16.07961
       H    -3.68999   15.02661   15.40598
       O    -3.80360   15.77971   14.80840
      H1    -3.49734   16.54901   15.38746
       H     0.89299   15.06545   11.38811
       O     0.94840   15.81044   12.02672
      H1     0.17017   15.72708   12.52531
       H    -5.57400   11.22325    7.65424
       O    -4.99040   11.95614    7.89350
      H1    -5.57805   12.72788    8.06778
       H    -5.82958    9.60974   10.83868
       O    -5.15643    9.01512   11.14678
      H1    -4.81393    9.44486   11.96667
       H    -4.22850   12.85908   11.59006
       O    -4.87349   12.50153   12.22570
      H1    -4.73048   12.76707   13.17333
       H    -4.83797   13.15515   15.76270
       O    -4.48708   12.67793   14.99936
      H1    -3.51788   12.66478   15.26710
       H    -2.00849   13.50323   10.38489
       O    -2.75863   13.87192   10.89477
      H1    -2.80654   14.80154   10.61684
       H    -5.32682    4.70714   14.40293
       O    -5.65333    4.10987   15.04071
      H1    -6.48799    3.85721   14.63731
       H    -3.42794    5.56365   13.52973
       O    -3.86818    4.89781   13.01651
      H1    -4.61895    5.35735   12.65872
       H     1.18902   13.21369   10.04191
       O     1.66588   14.05013    9.82856
      H1     1.22798   14.32836    9.05432
       H    -5.03338   14.82137   17.47529
       O    -4.58932   13.95660   17.47734
      H1    -5.08314   13.46952   18.12640
       H    -2.32994   14.84126   12.39275
       O    -1.77457   15.51467   12.87980
      H1    -2.42234   15.75913   13.53884
       H     0.45637    9.95966   17.69304
       O    -0.25456    9.81615   18.35790
      H1    -0.53651    8.92797   18.16351
       H    -2.38470    5.68656   15.77914
       O    -2.53108    6.33569   15.10390
      H1    -2.96112    7.10387   15.51549
       H    -2.23183   10.77268    9.13463
       O    -2.90951   10.20855    8.75583
      H1    -3.55600   10.94279    8.66276
       H     2.91224   12.62557   16.17787
       O     2.99149   11.98099   15.48912
      H1     3.25491   12.56956   14.79969
       H    -2.41893    4.95284   11.30733
       O    -1.64949    4.94774   10.75665
      H1    -1.39749    5.93179   10.82363
       H    -5.93576    7.18332   11.84369
       O    -6.05270    6.27990   12.20907
      H1    -6.96420    6.13956   11.90192
       H     1.25051   12.46945   18.11573
       O     0.99078   12.61744   17.18228
      H1     0.97265   13.56831   17.08657
       H     0.35204    8.48517   12.11992
       O     0.98876    8.32216   12.79068
      H1     0.42774    8.00739   13.51194
       H    -2.27541   10.86425   14.63112
       O    -2.27657   11.08099   15.57590
      H1    -1.35421   10.85471   15.77367
       H    -3.34678    9.37643   16.38679
       O    -3.57915    8.56188   16.71163
      H1    -4.52961    8.57595   16.51268
       H     2.55799   10.21186   10.21849
       O     1.71152   10.71125   10.13269
      H1     1.89017   11.03158    9.24449
       H    -1.32533   17.69164   18.65804
       O    -2.23318   17.27251   18.59632
      H1    -2.09238   16.30751   18.76092
       H    -7.98666    6.18168   17.19469
       O    -8.57552    6.82879   16.72843
      H1    -8.28579    7.66896   17.12817
       H    -3.26538   17.68233   17.08514
       O    -3.23914   18.12971   16.18898
      H1    -2.70189   18.91260   16.34924

