180
frame 88 | Written by MDAnalysis XYZWriter (release 2.4.3)
       H     3.04193    6.21091  -12.22607
       O     3.66307    5.45362  -12.15849
      H1     3.66386    5.34565  -11.21175
       H     4.22405    3.91455  -19.69879
       O     3.66796    3.33979  -19.15264
      H1     2.84477    3.22084  -19.68676
       H    -2.53044    5.11190  -10.25604
       O    -2.04129    4.62858  -10.96715
      H1    -2.20092    3.64154  -10.90555
       H     9.04389    3.58060  -13.93422
       O     8.61980    2.82520  -13.60359
      H1     9.25885    2.56817  -12.95830
       H     3.59965    9.43645  -11.91802
       O     2.90419    9.35415  -11.25986
      H1     2.29983   10.05148  -11.51293
       H     7.32231    2.88562  -15.16392
       O     6.59667    3.08675  -15.79179
      H1     5.92578    3.40966  -15.05874
       H     0.35346   -0.14413  -15.58750
       O     0.62577   -0.98016  -16.06251
      H1     0.85248   -1.69746  -15.42749
       H    -0.38460    6.25636  -16.96212
       O     0.05650    6.29631  -16.09207
      H1    -0.44447    7.03820  -15.69422
       H     3.74963    8.14235  -16.25224
       O     4.15166    8.80572  -15.69465
      H1     3.45153    9.26138  -15.15349
       H    -2.78288    2.71793  -17.61099
       O    -2.81316    1.86484  -17.12008
      H1    -2.70515    1.21546  -17.85983
       H    -5.27078    6.06419  -15.72812
       O    -4.36583    5.82797  -16.10698
      H1    -3.84928    6.34565  -15.46279
       H     9.61038    0.93551  -15.71076
       O     8.92214    0.39908  -15.29593
      H1     8.81587    1.04441  -14.53745
       H     0.25085    0.09763  -18.79368
       O     0.38897   -0.87125  -18.88346
      H1     0.74820   -1.07888  -18.00980
       H    -2.00140    8.86901  -15.45932
       O    -1.07425    8.61692  -15.20284
      H1    -0.71052    9.45716  -14.91608
       H     1.25640   -1.98351  -13.29977
       O     1.83454   -2.28732  -14.04042
      H1     2.71361   -1.89580  -13.83004
       H     2.87568    5.81199  -16.73141
       O     2.71743    6.74885  -17.02035
      H1     1.91172    6.93124  -16.40103
       H    -3.25066    0.35443  -14.93628
       O    -2.50303   -0.29869  -14.81923
      H1    -2.29764   -0.59042  -15.69633
       H     7.34359    8.79264  -14.47015
       O     7.17351    9.70777  -14.11021
      H1     6.67649   10.12319  -14.90232
       H     1.31571    5.11639  -19.31247
       O     1.55107    6.01430  -19.29311
      H1     2.06237    6.13125  -18.48309
       H    -2.56916   -0.54736  -19.43992
       O    -2.58173    0.47806  -19.46260
      H1    -3.53570    0.58937  -19.61132
       H     8.25202    5.65374  -15.09287
       O     9.04729    5.12572  -15.19113
      H1     8.96398    4.89611  -16.14353
       H     7.52146   -0.34046  -16.88910
       O     6.97226   -0.70054  -17.65174
      H1     6.35091    0.10318  -17.76934
       H    11.77195    6.05729  -15.70151
       O    11.38840    6.43500  -14.95613
      H1    10.50108    6.03435  -14.95653
       H     3.40052    3.83453  -17.61697
       O     3.23403    3.95406  -16.67430
      H1     2.82537    3.07633  -16.35150
       H     9.40941    4.20219  -18.44979
       O    10.13408    4.30210  -17.81863
      H1    10.84745    4.75730  -18.29698
       H    -0.84779   -1.98078  -18.68571
       O    -1.42114   -2.72647  -18.52855
      H1    -2.01459   -2.31757  -17.83738
       H    -0.29036    7.56559  -18.47510
       O    -1.18969    7.24553  -18.63188
      H1    -1.02262    6.77615  -19.48079
       H     2.15251    9.91587  -17.41860
       O     1.63111   10.02298  -16.59007
      H1     0.75822    9.68693  -16.82381
       H     5.88476    7.70878  -15.52581
       O     6.58894    7.20195  -15.18469
      H1     6.22612    6.78051  -14.35827
       H     0.04687    6.44571  -12.47175
       O    -0.43896    5.75156  -13.03880
      H1    -1.09919    5.49191  -12.40097
       H     4.20412    2.11846  -12.85425
       O     4.58157    1.90208  -11.96734
      H1     5.25281    2.56181  -11.89876
       H     6.62282    4.28428  -11.97654
       O     6.78421    3.43750  -11.49084
      H1     7.25471    3.01607  -12.22006
       H     1.60670    3.13644  -11.69644
       O     1.30691    2.62646  -10.90921
      H1     1.11900    3.33126  -10.22811
       H     3.85798    6.13239   -9.15907
       O     3.61739    5.24448   -9.47360
      H1     2.87456    4.96741   -8.96038
       H    -3.80173    4.50055  -15.39582
       O    -3.34899    3.80016  -14.85484
      H1    -3.84847    3.02829  -15.06272
       H     6.30837   -3.86046  -17.29725
       O     5.74170   -3.29404  -17.82086
      H1     6.20058   -2.40855  -17.84033
       H     3.08151   -2.38924  -18.39619
       O     2.98441   -1.87428  -17.57345
      H1     2.46144   -2.53959  -17.10858
       H     6.89185    0.79836  -12.16030
       O     7.41353    0.42326  -11.49726
      H1     6.79966    0.28116  -10.82335
       H     2.15709   11.43876  -19.71607
       O     2.82702   11.15066  -19.14040
      H1     3.29064   11.85970  -18.69996
       H     9.33080    9.45866  -16.63617
       O     8.89962    9.45940  -17.50041
      H1     8.53924    8.55367  -17.54006
       H     7.31363    4.20511   -9.93025
       O     7.99113    4.25873   -9.17031
      H1     7.35441    4.15819   -8.42621
       H     0.51505    3.03411  -14.21284
       O     1.29210    3.51540  -13.82873
      H1     0.97851    4.41300  -13.65459
       H     0.96264    6.95918  -10.76920
       O     1.18382    7.37310  -11.58100
      H1     1.83854    8.01272  -11.28234
       H     6.69009    7.01625  -17.91502
       O     7.57058    7.18016  -18.25269
      H1     7.44422    7.65819  -19.09764
       H     4.44094    1.79998  -18.44842
       O     5.06426    1.33697  -17.81658
      H1     5.36165    2.13420  -17.27876
       H     5.54844   -1.03618  -16.11308
       O     5.63289   -0.70752  -15.19602
      H1     6.56141   -0.72702  -15.03203
       H    -2.06407    6.42277  -14.02124
       O    -2.98067    6.58818  -13.81988
      H1    -3.13602    5.80698  -13.32076
       H     1.61621    1.74298  -17.47267
       O     0.89818    1.89169  -18.13235
      H1     0.24734    2.38654  -17.56536
       H     4.88519   -1.17414  -13.67228
       O     4.12491   -1.21788  -13.01875
      H1     3.99403   -0.27378  -13.05807
       H     3.73767    2.03459  -10.18207
       O     3.27386    1.54225   -9.46664
      H1     2.36832    1.92679   -9.72359
       H     5.56484    5.86283  -12.08657
       O     6.38979    5.85227  -12.56469
      H1     6.99670    6.36159  -11.98436
       H    -0.62106    2.23446  -15.12231
       O    -0.46791    1.53870  -14.42412
      H1    -1.17425    0.94839  -14.76295
       H     2.17099   10.70213  -15.13807
       O     2.53968   11.01266  -14.28233
      H1     1.66987   11.21417  -13.84656
       H    -0.60565    4.63842  -15.88972
       O    -0.57566    3.73364  -16.17678
      H1    -1.50151    3.47658  -16.14594
       H    10.46787    2.85603  -16.95342
       O    10.67066    1.94321  -16.65542
      H1    11.29174    2.07647  -15.92950
       H     3.63065    1.04057  -16.33943
       O     2.73747    1.10938  -16.03226
      H1     2.44193    0.17704  -16.07252
       H     4.88087   11.39868  -12.98772
       O     5.45259   10.91049  -12.38952
      H1     5.98338   10.30018  -13.02317
       H    -1.03289    1.81068  -12.85071
       O    -1.47492    1.87951  -11.96669
      H1    -0.64116    2.05468  -11.54377
       H     4.99905   10.34256  -15.99156
       O     5.42008   11.21541  -15.79007
      H1     4.77713   11.85499  -16.23618
       H     4.04033    3.73958  -14.97647
       O     4.56126    3.67981  -14.16027
      H1     4.12999    4.27887  -13.56851

