180
frame 4 | Written by MDAnalysis XYZWriter (release 2.4.3)
       H     3.60054  -11.63919   17.50865
       O     3.96972  -10.81607   17.81390
      H1     3.41113  -10.67213   18.54981
       H    11.90750  -15.92912   16.03557
       O    11.69209  -16.03229   17.00874
      H1    10.97228  -15.43180   17.11226
       H     9.10484  -14.52756   16.21258
       O     9.09792  -14.87698   17.13545
      H1     9.12254  -14.08167   17.73622
       H     9.13583   -8.21124   10.40590
       O     9.51785   -7.75770    9.63231
      H1     9.86018   -6.92966   10.03441
       H    12.77685  -13.11062   18.79087
       O    11.97058  -12.84081   19.26213
      H1    12.31208  -12.74298   20.15347
       H     8.22161   -2.57425   15.61085
       O     7.77875   -3.41662   15.71046
      H1     8.49725   -3.95977   15.92430
       H     6.52298   -7.77425   18.51096
       O     6.04929   -8.61768   18.59676
      H1     5.76336   -8.71929   17.67949
       H    11.45035   -3.16637   14.35275
       O    11.90561   -3.09271   15.19844
      H1    11.76828   -4.05448   15.41705
       H    15.25033  -13.07870   12.96849
       O    15.65652  -13.79729   12.41293
      H1    16.02272  -13.25721   11.65869
       H    15.62933  -10.06594   18.41680
       O    15.53588  -10.31066   17.51138
      H1    16.37717  -10.18811   17.09578
       H     9.58693   -2.57252   20.07815
       O     9.74649   -2.70699   19.12263
      H1    10.66943   -3.07689   19.09810
       H    16.69431  -12.78089   17.48400
       O    16.33003  -13.11652   18.32295
      H1    16.72118  -12.38885   18.96051
       H     5.77064   -4.71598   17.94335
       O     5.08679   -5.32607   17.51330
      H1     4.90803   -4.90442   16.58810
       H    13.94206  -11.77627   12.90480
       O    14.19373  -12.04917   13.75783
      H1    13.53917  -12.68948   14.00213
       H     5.55495  -11.93611   13.29068
       O     5.64819  -11.74158   12.32739
      H1     5.33314  -12.60618   11.96094
       H    15.51096  -15.84530   15.91529
       O    15.20331  -16.39166   16.64390
      H1    14.79618  -17.12829   16.22483
       H     6.27168   -6.56223   16.71416
       O     7.03014   -7.10334   16.54784
      H1     6.66750   -7.99393   16.61728
       H     8.71215   -6.08138   16.76643
       O     9.43189   -5.41173   16.99030
      H1     9.26327   -5.10341   17.86924
       H    10.52351  -15.79692   11.54757
       O    11.06732  -15.45284   12.37463
      H1    11.74128  -14.88356   11.94339
       H    12.37265   -6.87260   10.21364
       O    11.94601   -7.02682   11.14740
      H1    11.68278   -6.12790   11.46670
       H    18.43427   -7.42992   18.77718
       O    18.01299   -7.78667   19.59550
      H1    17.12797   -7.46017   19.43368
       H    11.35346  -13.94991   14.59193
       O    12.21476  -13.49399   14.57597
      H1    12.62601  -13.71386   15.40890
       H    10.00169   -9.48144   18.77334
       O     9.49060   -9.34721   19.57946
      H1     9.29302  -10.20665   19.84268
       H    16.69007   -6.66206   14.17481
       O    17.01425   -7.55552   13.92651
      H1    16.70041   -7.71313   13.02121
       H     8.91125   -9.99623   11.32691
       O     8.39396   -9.14817   11.62894
      H1     7.49204   -9.35113   11.28913
       H     9.08622  -13.50548   14.01641
       O     9.24203  -14.38867   14.35689
      H1     9.71317  -14.81309   13.63506
       H     9.95866  -10.27427   15.89668
       O     9.17663   -9.96373   15.42427
      H1     8.51862  -10.35702   16.06906
       H    13.56136   -2.97490   12.85319
       O    13.50853   -3.52177   12.02433
      H1    12.91920   -4.21921   12.31938
       H     4.56965   -8.93580   15.35776
       O     5.13631   -9.42206   15.96676
      H1     4.44484   -9.78073   16.60094
       H    13.35991   -2.97250   18.35742
       O    12.52878   -3.46484   18.52741
      H1    12.94347   -4.17268   19.05331
       H    17.33903  -10.00117   15.39864
       O    18.01521   -9.93315   16.08660
      H1    17.94050   -8.99337   16.16834
       H     5.64014  -13.77331   19.77424
       O     5.52518  -13.21983   18.99429
      H1     5.58176  -12.30606   19.33503
       H    16.64404  -14.52431   13.93944
       O    16.99193  -15.21438   14.55841
      H1    17.50057  -14.76726   15.26521
       H    15.56520  -11.00757   13.80514
       O    16.16140  -10.32357   14.11681
      H1    16.50736   -9.97319   13.25343
       H    12.46457   -8.75263   11.58381
       O    12.79030   -9.56105   12.04325
      H1    13.51740   -9.28462   12.63711
       H    12.54666   -5.03008   17.18336
       O    12.26729   -5.61766   16.45090
      H1    11.33557   -5.78910   16.61819
       H    15.68153   -3.99043   14.50876
       O    16.32577   -4.72410   14.30227
      H1    17.04167   -4.04685   14.14625
       H     8.80464  -11.15630   13.74075
       O     8.45927  -11.83013   13.12118
      H1     7.55228  -11.49741   13.07850
       H     9.50800   -7.09376   13.77136
       O     8.87893   -6.75818   13.09024
      H1     8.85318   -7.54268   12.51568
       H    13.57574   -3.02987   15.35520
       O    14.55074   -2.81861   15.29158
      H1    14.65345   -2.04648   14.68211
       H     6.89006  -12.09475   17.23549
       O     7.56517  -11.44937   17.22071
      H1     8.19869  -11.80182   17.88445
       H    18.93985  -11.35266   18.62294
       O    18.66632  -11.92345   19.30991
      H1    18.65243  -11.33869   20.06783
       H    17.05495  -10.70756   11.67153
       O    16.77967   -9.79790   11.73571
      H1    16.20819   -9.67696   10.96727
       H    12.46446  -17.42457   18.10172
       O    12.95176  -18.15643   18.48334
      H1    12.53569  -18.05176   19.41095
       H    12.24620   -7.44556   16.88858
       O    12.56813   -8.39036   17.03007
      H1    12.94176   -8.49686   16.13764
       H     8.95260  -11.66016   11.38902
       O     9.51118  -11.47929   10.57885
      H1     8.92041  -11.81190    9.92319
       H    18.73103  -13.30704   15.79282
       O    17.83545  -12.95596   15.62608
      H1    17.85712  -12.83326   14.67404
       H    13.71244  -11.80742    9.96974
       O    13.66840  -11.76622   10.92648
      H1    13.23088  -10.82712   11.05684
       H    14.59549   -9.26396   14.86421
       O    13.99572   -8.51819   14.77082
      H1    14.59585   -7.87235   14.39639
       H    11.68041   -9.76075   17.55376
       O    11.10390  -10.50235   17.79921
      H1    11.69343  -11.09894   18.23369
       H    11.37755   -7.99430   14.72297
       O    10.68491   -7.38854   15.04938
      H1     9.90420   -8.00017   15.27705
       H    15.03413   -2.69247   17.19520
       O    14.90962   -2.28039   18.07483
      H1    15.43118   -2.90709   18.59487
       H     4.60060  -11.93978   15.25285
       O     5.54232  -12.05084   15.13477
      H1     5.89414  -11.24942   15.51788
       H    10.43669   -5.48653   12.89417
       O    11.21558   -4.93853   12.67485
      H1    10.81977   -4.10574   12.35158
       H    15.01561   -6.57322   17.30329
       O    15.64700   -7.04133   17.94664
      H1    15.21708   -7.90615   17.80005
       H    13.23388  -14.56639   17.35974
       O    13.47861  -13.72170   16.87589
      H1    14.41271  -13.50044   17.15547
       H     7.19993  -14.76433   16.49074
       O     6.42576  -14.61720   15.94334
      H1     6.26311  -13.68409   15.93621
       H    17.42705   -4.91172   17.14042
       O    17.41160   -4.01926   17.47147
      H1    17.40354   -4.07213   18.45809
       H     8.16406  -16.47686   17.61719
       O     8.18208  -17.03521   18.45559
      H1     7.37374  -17.52138   18.38348
       H     6.19835   -6.49909   13.45254
       O     5.43634   -6.39124   12.85609
      H1     4.87682   -6.93271   13.41913

