180
frame 6 | Written by MDAnalysis XYZWriter (release 2.4.3)
       H     5.98114   -0.02168    7.11865
       O     6.20567   -0.89389    6.75239
      H1     5.80250   -1.46752    7.44502
       H    16.43059   -0.87933   11.39272
       O    16.70111   -0.65720   10.49360
      H1    17.41384   -1.27363   10.31402
       H    12.08526    4.15394    8.97863
       O    12.38613    3.76638    8.16660
      H1    12.77763    4.52302    7.64461
       H     6.13896    2.82178   11.05557
       O     5.58679    2.04619   11.07187
      H1     5.20838    2.19524   11.97147
       H    15.37532   -0.66516   14.99552
       O    16.02418   -1.20105   15.46221
      H1    16.35385   -0.69355   16.17860
       H     8.38791   -0.76001   13.30968
       O     9.29458   -0.52859   13.30050
      H1     9.32126    0.38217   12.97386
       H    10.89527   -8.19620    8.72356
       O    10.61241   -7.34666    8.41556
      H1    10.48589   -6.84380    9.21733
       H    12.72915    1.77694   11.01691
       O    12.85702    1.37577   10.11146
      H1    13.05802    0.46615   10.33326
       H     8.73996    3.38318   11.59175
       O     9.54506    2.89068   11.79115
      H1     9.51672    2.26639   11.06069
       H    15.68172   -0.16794    9.13473
       O    15.33748   -0.14578    8.19387
      H1    15.13955    0.83028    8.15981
       H     9.70034   -2.47060   10.35026
       O    10.29909   -1.83581   10.74292
      H1     9.70573   -1.22279   11.24666
       H     3.61768   -1.34796   13.57969
       O     3.71800   -0.88771   14.44186
      H1     2.85925   -0.92370   14.90161
       H    11.29530   -1.80835   16.87662
       O    12.15440   -2.32842   16.95624
      H1    12.46027   -2.05196   17.84272
       H     9.16161   -3.12600   15.52363
       O     8.45534   -3.67963   15.37325
      H1     8.81053   -4.51467   15.60577
       H    11.83419   -4.95235   13.86652
       O    12.63013   -5.39230   14.13298
      H1    12.36490   -5.99212   14.83816
       H     6.67000    0.72519   10.50607
       O     6.87056   -0.21758   10.58794
      H1     6.64646   -0.40174   11.53153
       H    14.10156    2.81716    8.88487
       O    15.05180    2.97346    8.67307
      H1    15.04212    3.56408    7.95436
       H    11.42093   -0.94982    5.68999
       O    10.56879   -0.61237    5.96215
      H1     9.99065   -0.53599    5.15880
       H     5.79067   -0.81235   13.75731
       O     6.53964   -1.08717   13.17008
      H1     6.57835   -2.05277   13.43615
       H    12.42602   -2.80324    5.27643
       O    11.87046   -3.27191    4.64285
      H1    12.56731   -3.80693    4.14150
       H     5.61238    3.17220   14.57580
       O     5.24356    2.45605   15.13489
      H1     5.50515    2.74888   16.03120
       H     6.80830   -7.40376   10.66652
       O     6.57199   -7.89482   11.45660
      H1     6.82221   -7.19249   12.11498
       H     8.19283   -6.45907   16.13531
       O     9.12724   -6.10744   16.13520
      H1     9.23223   -5.65820   16.96990
       H     7.41017   -3.06166   16.83476
       O     6.93551   -2.84402   17.64640
      H1     7.71119   -2.70073   18.18468
       H     6.46218   -2.03248    5.26547
       O     6.66374   -2.35562    4.35893
      H1     7.07192   -3.20097    4.53838
       H    12.22105   -0.96304   11.46059
       O    13.17146   -0.86844   11.54094
      H1    13.26330   -0.58517   12.44623
       H    10.53584   -4.85054   10.61390
       O     9.86036   -5.53697   10.67083
      H1    10.16002   -5.92684   11.52267
       H    12.67808   -3.92563    9.80741
       O    12.81499   -4.46760   10.57306
      H1    12.89506   -3.86751   11.32996
       H    15.35312   -6.04797   13.43874
       O    15.26405   -6.09649   12.46919
      H1    14.70597   -5.36636   12.21693
       H    11.34919    5.30120   11.17592
       O    11.20221    4.76798   10.37258
      H1    10.73995    3.99587   10.74493
       H    13.57769   -4.08754   13.76653
       O    14.10747   -3.52851   13.10863
      H1    13.93420   -2.63621   13.45561
       H    12.26166    2.44135   13.34473
       O    12.00736    2.26260   12.45525
      H1    11.13072    2.55971   12.37035
       H    12.29016   -1.63722   14.67251
       O    12.96236   -1.02703   14.32226
      H1    12.76059   -0.26334   14.90981
       H    10.15607    5.26284    7.28621
       O     9.93046    4.66090    6.49002
      H1    10.37883    3.85027    6.74295
       H     4.98287    1.87105    6.33598
       O     5.19284    2.09315    7.27962
      H1     6.15111    2.39123    7.28939
       H    10.81721    1.23171    6.33066
       O    11.15855    2.12501    6.32478
      H1    11.75806    2.18129    7.06005
       H    10.87318    0.85222    9.71576
       O     9.90028    0.97795    9.66423
      H1     9.55002    0.11761    9.82376
       H     3.96673    1.53576   13.76772
       O     3.65878    1.69304   12.85813
      H1     3.22831    0.87118   12.59921
       H     7.97647   -6.46713    8.63541
       O     7.30477   -6.07646    9.24551
      H1     7.71067   -5.15181    9.20117
       H     9.24947   -1.83657    6.63274
       O     8.47637   -2.42005    6.89715
      H1     7.67496   -1.86718    6.83323
       H     9.92441   -8.70781   13.22091
       O     9.94796   -8.02109   12.52338
      H1     9.42201   -8.34829   11.79165
       H    15.14568   -6.87514    9.07927
       O    14.41065   -6.95435    9.67113
      H1    14.27702   -6.09235   10.13488
       H    13.78516   -3.09629   16.41465
       O    14.71161   -3.32707   16.59341
      H1    15.02530   -2.49047   16.26917
       H    12.07265    2.42572   15.79934
       O    12.56995    1.83214   15.17499
      H1    13.47000    1.85345   15.48730
       H     6.88558   -2.86687    9.47125
       O     7.80926   -3.27672    9.38982
      H1     8.02757   -2.94962    8.52570
       H     6.15458    1.16936   15.90913
       O     6.84772    0.72829   16.39450
      H1     6.34367   -0.01630   16.72232
       H    12.54043   -5.86779    7.01070
       O    12.84235   -6.77650    6.79169
      H1    12.21121   -7.27340    7.32238
       H     6.50992   -4.33209   13.55851
       O     5.80594   -3.75336   13.18576
      H1     5.93561   -4.01961   12.25286
       H    13.98074   -1.61147    5.43422
       O    13.20571   -1.46726    5.93931
      H1    13.41782   -1.80281    6.82920
       H     7.33968    3.47344    9.42950
       O     7.30546    3.80655   10.33226
      H1     6.63570    4.48648   10.12819
       H    17.14846   -3.49772   12.88067
       O    16.67396   -2.66021   12.55960
      H1    15.73510   -3.07370   12.67788
       H    10.37647   -4.67549    7.51546
       O    11.16608   -4.38023    7.08487
      H1    10.88269   -4.24331    6.11490
       H     9.60444   -3.89060   13.60901
       O    10.50313   -3.64867   13.37214
      H1    10.45549   -3.27062   12.48032
       H     3.82572   -2.97031   15.13707
       O     3.66349   -3.85362   14.77045
      H1     4.53010   -3.96667   14.26772
       H     9.57109   -0.27369   16.31396
       O     9.84249   -1.11947   15.92205
      H1     9.52763   -0.83409   15.00928
       H     4.36145   -2.26136    9.82823
       O     5.09987   -1.89342    9.28716
      H1     5.54175   -1.19662    9.82265
       H     5.77358   -5.73764   10.41606
       O     5.38668   -5.02632   10.98900
      H1     4.61880   -5.56078   11.33644
       H     8.31455   -6.59507   13.09185
       O     7.51724   -6.05965   13.21512
      H1     7.10393   -6.47684   13.96232
       H     8.44584    2.00126    8.03227
       O     8.02830    2.59523    7.41828
      H1     8.74387    3.19444    7.33622
       H    14.29755   -3.67388    8.18694
       O    13.68228   -2.89193    8.26480
      H1    14.09226   -2.32558    8.88186

