180
frame 67 | Written by MDAnalysis XYZWriter (release 2.4.3)
       H     9.14874   10.81216  -13.77637
       O     9.59848   11.49783  -14.26777
      H1     9.10287   11.64903  -15.09054
       H     7.85712   15.49802  -11.44658
       O     7.37373   15.88411  -12.22494
      H1     6.99131   16.72919  -11.84628
       H     4.07430   16.61490  -16.00930
       O     4.86765   16.05210  -15.87714
      H1     4.78058   15.75307  -14.97100
       H    12.64803    8.71332  -18.69930
       O    11.75473    8.30973  -18.75175
      H1    11.79094    7.97238  -19.66336
       H    10.95975   14.00948  -19.43476
       O    10.49064   13.71144  -18.60633
      H1     9.67010   14.13776  -18.80841
       H    15.81326    8.81087  -16.43370
       O    16.08100    9.02395  -17.34323
      H1    15.63295    9.86409  -17.55140
       H     7.79928   16.27682  -17.85802
       O     8.64253   16.46206  -17.39575
      H1     8.44370   16.02155  -16.49518
       H    14.88179   18.59609   -9.85570
       O    14.14911   18.70601   -9.18190
      H1    13.65785   17.88440   -9.33817
       H    17.83889   11.46431  -17.59796
       O    18.26750   10.63908  -17.84555
      H1    17.58126    9.92984  -17.75185
       H    10.45676   15.72221  -14.01346
       O    10.68867   14.86274  -14.27602
      H1    10.30384   14.24583  -13.61723
       H    13.05303    6.39626  -16.85133
       O    12.12007    6.77782  -16.59074
      H1    11.98587    7.27521  -17.43619
       H    15.86471   19.41623  -11.67580
       O    15.65851   18.46835  -11.52815
      H1    16.55187   18.23375  -11.15451
       H    11.39726   12.26604  -10.13590
       O    11.94011   12.08862  -10.94908
      H1    12.80673   12.41242  -10.56277
       H    14.09776   14.69795  -16.93604
       O    15.01035   14.83293  -17.19426
      H1    14.79631   14.93098  -18.20172
       H    11.09066   11.55111  -19.04019
       O    10.86720   10.79924  -19.67346
      H1    11.12355   10.06396  -19.07980
       H    11.98120   11.27250  -16.78262
       O    12.30530   11.66606  -17.58253
      H1    12.24541   12.63839  -17.43822
       H    15.03459   16.80559  -14.32427
       O    14.43534   16.06962  -14.00146
      H1    13.79798   16.60013  -13.55982
       H    12.86914    8.96817  -10.78652
       O    12.29414    9.43853  -10.13489
      H1    11.98331   10.16327  -10.70443
       H     6.28232   18.81311  -15.19212
       O     6.79921   18.89565  -14.34143
      H1     7.65197   18.44076  -14.54800
       H    11.10401   17.88762   -8.60363
       O    11.25741   16.92624   -8.48683
      H1    10.48338   16.60790   -8.94064
       H     8.01753   12.29385  -17.15418
       O     8.22174   11.56186  -16.58018
      H1     8.64121   11.05005  -17.27017
       H     8.71431   11.26676  -10.45243
       O     8.30508   10.86878   -9.66033
      H1     8.91847   10.11291   -9.44267
       H    15.77008    6.84552  -18.56357
       O    16.06437    6.84121  -19.49364
      H1    15.44083    7.57027  -19.72406
       H     9.25828    7.90367  -15.40403
       O     9.35816    8.32269  -16.26926
      H1     8.41184    8.43655  -16.56471
       H    14.90602   13.71835  -10.49057
       O    14.12916   13.52378   -9.92428
      H1    14.39859   13.88656   -9.08229
       H    11.30247   19.10146  -17.33993
       O    12.16922   19.14576  -17.75172
      H1    12.37237   18.30312  -18.13544
       H    19.57622   19.29288  -18.89494
       O    19.20290   19.36131  -19.78301
      H1    18.29068   19.27719  -19.45123
       H    10.93978   10.18176  -14.90106
       O    11.60479    9.81386  -15.53515
      H1    11.28578    8.97754  -15.87436
       H    19.25311   16.12917  -18.27277
       O    19.09154   15.81876  -17.33391
      H1    18.26970   16.21980  -17.13352
       H     5.67830   12.53686  -18.37747
       O     6.39798   13.13933  -18.67460
      H1     6.01122   14.00202  -18.49141
       H    14.05762    8.33569  -12.76884
       O    14.16858    8.22818  -11.81391
      H1    13.65488    7.40246  -11.68480
       H    10.43709   12.78446  -12.05138
       O     9.62178   13.42351  -12.11783
      H1     9.10094   12.97966  -12.80729
       H    16.04698   13.51082  -16.86176
       O    16.68625   12.84194  -16.70229
      H1    16.75663   12.85330  -15.71938
       H    15.05592   12.27617  -13.67046
       O    15.44028   11.52038  -14.25503
      H1    16.15509   11.25569  -13.68020
       H     7.86184   10.00291  -19.49417
       O     8.48455    9.49959  -18.94810
      H1     9.33787    9.72558  -19.26060
       H    18.82763   13.14068  -13.49252
       O    19.14214   12.58429  -12.74219
      H1    19.88100   13.06507  -12.42672
       H    14.58493    9.96238  -14.34000
       O    14.31931    9.02150  -14.35034
      H1    13.49627    9.03929  -14.97253
       H    15.95646   18.37634  -13.60621
       O    15.95489   18.22418  -14.55155
      H1    15.14648   18.70651  -14.82621
       H    12.96875   18.56259  -15.03784
       O    13.51022   19.34270  -15.29184
      H1    13.07466   19.57637  -16.11057
       H     5.61986   16.06046  -17.60391
       O     6.12744   16.04541  -18.45391
      H1     5.44009   16.47138  -19.00580
       H    17.58347   15.38303  -11.22966
       O    17.84606   16.25861  -11.54161
      H1    17.70098   16.20398  -12.51265
       H     9.22447    7.54241  -18.75576
       O     9.32232    6.72371  -19.29464
      H1    10.02019    6.27281  -18.85637
       H    13.36804   13.31433  -13.17059
       O    14.24985   13.63043  -12.99071
      H1    14.22325   14.52500  -13.48791
       H    16.42908   17.90861  -16.51661
       O    16.47009   17.36246  -17.34410
      H1    15.65887   16.83064  -17.18632
       H    17.60590   13.00598  -11.41221
       O    17.20365   13.62420  -10.83943
      H1    17.91439   13.87053  -10.26664
       H    15.82819    9.59331  -11.86033
       O    16.64930    9.99401  -12.08584
      H1    17.14803   10.03930  -11.27005
       H     8.70567   15.42399   -9.11464
       O     9.39104   15.39529   -9.81850
      H1     9.47917   14.43132   -9.86301
       H     8.92459    9.03731  -13.17326
       O     8.44008    9.67156  -12.59462
      H1     7.48331    9.44477  -12.69825
       H     7.56909   18.41851  -17.93444
       O     7.89524   19.28776  -18.30849
      H1     7.27264   19.98754  -17.96964
       H    11.53481   14.58328  -15.81164
       O    12.13740   14.51840  -16.58302
      H1    11.39806   14.28950  -17.25824
       H    18.97699   14.94393  -14.45280
       O    18.19947   14.42363  -14.76823
      H1    18.31135   14.54134  -15.70893
       H    14.01567   11.33216  -17.64378
       O    14.91577   11.27072  -18.01909
      H1    15.35131   11.77803  -17.33479
       H    10.78816   19.05293  -10.61885
       O    10.48091   19.01762  -11.53537
      H1    11.18137   18.46739  -11.93395
       H     5.45622   13.74872  -14.11161
       O     5.19621   14.49885  -13.58177
      H1     5.86073   14.54259  -12.90388
       H     7.44086   15.22928  -14.32075
       O     7.86673   15.12209  -15.20798
      H1     8.80516   15.04923  -14.89242
       H     6.64442   12.06384  -15.21968
       O     5.86905   12.24562  -14.64052
      H1     5.28654   11.60048  -15.08580
       H    10.96053    6.78435  -13.79778
       O    11.91523    6.91812  -13.95051
      H1    12.00738    6.75750  -14.90411
       H     9.82398   18.47241  -15.00351
       O     9.60128   17.88249  -14.24193
      H1     9.41234   18.51591  -13.55246
       H    12.21681   16.10102   -9.75794
       O    12.90646   16.05973  -10.43838
      H1    13.46673   15.31274  -10.21691
       H    13.33193   18.14415  -12.00068
       O    12.51643   17.76991  -12.42511
      H1    12.36136   16.99854  -11.80723

