180
frame 7 | Written by MDAnalysis XYZWriter (release 2.4.3)
       H    -2.11741   -8.23969    0.28896
       O    -2.84704   -8.60457    0.80507
      H1    -3.00266   -8.11250    1.63450
       H    -6.15090  -16.67104   10.08300
       O    -5.80917  -16.23383    9.31791
      H1    -5.25420  -16.98861    8.97176
       H    -0.50657  -16.39718    2.55356
       O     0.44237  -16.68855    2.36351
      H1     0.95501  -15.82485    2.30492
       H     1.83337  -13.51038    7.94322
       O     2.27698  -13.01918    8.66403
      H1     2.61557  -12.15863    8.27338
       H    -4.24123  -17.55638   -3.56299
       O    -3.51827  -17.99766   -3.95733
      H1    -3.17521  -17.50121   -4.71295
       H     1.95929  -14.29741    1.21993
       O     2.14469  -14.33470    2.12181
      H1     2.99225  -14.81114    2.11918
       H    -7.48446  -16.01385    6.10737
       O    -6.73278  -16.20029    5.56445
      H1    -7.13088  -16.55331    4.74012
       H   -10.13365  -17.47582    1.98669
       O    -9.28803  -17.77302    2.25292
      H1    -9.50113  -18.28077    3.05232
       H     2.81070  -10.66048    3.50194
       O     3.05301   -9.91763    2.95076
      H1     2.40552   -9.15335    3.00775
       H     4.59810  -18.50585    5.22551
       O     4.80818  -19.23964    4.63560
      H1     4.34361  -19.06925    3.77888
       H    -1.01466  -13.20414   -4.37388
       O    -0.35473  -13.20082   -3.65150
      H1    -0.85150  -13.50762   -2.86097
       H     1.76588  -15.65284   -0.43491
       O     1.54521  -14.67132   -0.40410
      H1     2.24100  -14.13118   -0.81214
       H    -3.55748  -10.80921    5.37829
       O    -3.24746   -9.94872    5.01269
      H1    -3.19368  -10.14481    4.05946
       H    -3.74570  -12.43859   -3.68994
       O    -4.05762  -13.35144   -3.86259
      H1    -4.72492  -13.24487   -4.52914
       H    -0.04255  -13.37078    5.36353
       O     0.64614  -13.11428    6.01583
      H1     1.39218  -12.91061    5.45383
       H     4.79671  -16.25227    1.59832
       O     4.60752  -15.46142    2.17053
      H1     4.90722  -14.61752    1.78121
       H    -1.95514  -16.85337    7.56640
       O    -1.90909  -16.18075    6.85071
      H1    -2.16995  -16.59803    6.02132
       H    -0.82662  -18.79142    9.28643
       O    -1.53086  -18.08479    9.36201
      H1    -1.02211  -17.44758    9.89014
       H    -7.54940  -17.33953    2.60710
       O    -6.74828  -17.06848    2.98441
      H1    -6.53158  -16.30548    2.45238
       H    -5.26644  -11.93651    1.72804
       O    -5.15118  -11.95236    2.70420
      H1    -5.58577  -12.71063    3.15089
       H    -2.32914  -17.10450    3.97398
       O    -2.50613  -17.80644    4.60182
      H1    -1.72531  -18.32487    4.58089
       H    -4.54951  -18.95870    7.69950
       O    -4.37411  -18.47876    8.55359
      H1    -3.43343  -18.42567    8.76576
       H     0.21672  -19.53408   -3.20796
       O     0.69527  -19.89353   -2.45917
      H1     0.14172  -19.53935   -1.73040
       H     0.03386  -10.70018    8.57976
       O    -0.48589  -11.27050    8.02640
      H1    -0.02360  -11.77662    7.36806
       H    -4.81916  -14.68869    1.18374
       O    -4.39141  -14.46138    0.33183
      H1    -3.89940  -15.24487    0.19219
       H     3.45102  -16.25662    5.63609
       O     3.33043  -17.06306    6.18977
      H1     2.37236  -17.05862    6.38866
       H    -1.91450   -9.51790    5.99792
       O    -1.25798   -9.16473    6.62787
      H1    -0.89483   -9.95640    7.14200
       H    -6.29713  -17.34703   -4.06898
       O    -6.23290  -17.07470   -3.07171
      H1    -6.25788  -16.13531   -2.99348
       H    -4.19311  -15.36220    6.46709
       O    -4.00965  -14.50733    6.05191
      H1    -4.76002  -14.47753    5.44002
       H    -6.96560  -12.75180    4.87677
       O    -6.39585  -13.49681    4.56949
      H1    -6.68677  -14.23150    5.13534
       H     0.21733  -10.27104   -1.34848
       O     0.20543  -10.97227   -0.70258
      H1     0.49450  -10.50138    0.05405
       H    -1.87916  -16.07890   -0.54907
       O    -2.57204  -16.56039   -0.10206
      H1    -2.39740  -17.41615   -0.51128
       H    -2.53784  -10.06634    1.95829
       O    -2.52451  -10.78216    2.55112
      H1    -3.34115  -11.27935    2.59880
       H    -2.39771  -15.78501    1.86396
       O    -2.25218  -15.76510    2.79769
      H1    -1.90913  -14.91720    3.10040
       H    -0.22424  -16.19742    6.56051
       O     0.70407  -16.09611    6.33418
      H1     0.99414  -15.21564    6.11764
       H    -5.13116  -14.05502   -2.41447
       O    -6.02484  -14.32247   -2.04636
      H1    -5.85445  -14.64693   -1.16659
       H    -3.67866  -18.92002    3.48532
       O    -4.36446  -19.28484    2.96178
      H1    -4.99344  -18.54875    2.90164
       H    -7.91116  -11.67663   -2.02855
       O    -7.04563  -11.52248   -2.49916
      H1    -6.59265  -12.30218   -2.16626
       H     4.12159  -15.80544   -0.69577
       O     4.68410  -15.34344   -1.33313
      H1     5.15438  -14.63580   -0.82979
       H    -6.04082  -11.46173   -0.33104
       O    -5.19695  -11.76620    0.09557
      H1    -4.98915  -12.59217   -0.30044
       H     0.31858   -9.57004    5.94936
       O     1.18788   -9.82032    5.49951
      H1     1.74293  -10.13130    6.22686
       H    -1.63118  -13.51947   -0.92748
       O    -1.13185  -14.27602   -1.18862
      H1    -0.24498  -14.22880   -0.76069
       H     5.13575  -14.50282    5.00459
       O     4.33157  -14.94198    4.71890
      H1     4.46264  -15.15180    3.77621
       H    -7.47438  -15.63538    0.27885
       O    -6.89227  -15.17122    0.91910
      H1    -7.33924  -14.42770    1.36700
       H    -2.07168  -18.27375   -2.75713
       O    -1.52282  -18.37031   -1.93016
      H1    -1.82468  -19.30157   -1.62920
       H     0.01628  -16.49141   -4.03633
       O     0.44391  -15.67742   -4.25039
      H1     0.01617  -15.08587   -3.71393
       H    -8.44138  -14.78622    8.12861
       O    -7.54675  -14.74558    7.80540
      H1    -7.03543  -15.33926    8.35040
       H    -8.38668  -12.12400    2.30129
       O    -8.53430  -12.91458    1.74410
      H1    -8.80613  -12.58167    0.87862
       H     0.35705  -10.66961    4.02318
       O     0.31240  -11.39270    3.33589
      H1    -0.47936  -11.17190    2.85440
       H     3.41322  -13.26978    4.59768
       O     3.10624  -12.55643    4.03106
      H1     2.53153  -12.93243    3.31456
       H     1.58415  -17.50356    0.80021
       O     2.36275  -17.29308    0.14520
      H1     2.71327  -18.17792   -0.05231
       H     0.37687  -17.56012    5.17926
       O     0.22411  -18.30972    4.63272
      H1     0.61527  -18.01371    3.82942
       H    -1.62515  -12.84678    4.84237
       O    -1.59840  -13.82989    4.68498
      H1    -2.03736  -14.16882    5.51097
       H    -8.62114  -17.70765   -1.19665
       O    -8.42836  -16.79223   -1.37144
      H1    -7.56602  -16.79684   -1.86215
       H    -4.25434  -11.50954    7.97704
       O    -4.62636  -11.66346    7.06450
      H1    -4.57275  -12.59494    6.92257
       H     1.77547  -11.85172   -1.29156
       O     2.68639  -12.18024   -1.26303
      H1     2.79874  -12.72178   -2.02613
       H    -4.22489  -18.68037    5.77367
       O    -4.26930  -19.55210    6.11959
      H1    -3.35414  -19.77138    6.20755
       H    -5.92683  -10.57186    3.65056
       O    -6.14835   -9.63378    3.92226
      H1    -5.36273   -9.10132    3.69759
       H    -3.66785  -10.43717   -2.94841
       O    -2.94501  -11.00074   -3.16418
      H1    -2.59697  -11.21631   -2.23954
       H    -3.04920  -11.67523    0.24465
       O    -2.39350  -11.88512   -0.37278
      H1    -1.56202  -11.44435   -0.09960

