180
frame 12 | Written by MDAnalysis XYZWriter (release 2.4.3)
       H     1.61191    3.51618  -10.59178
       O     2.05497    4.33419  -10.61822
      H1     1.23535    4.87198  -10.57746
       H     2.49024   10.26090  -12.36268
       O     3.38048    9.92887  -12.17510
      H1     3.71208   10.67777  -11.67526
       H    -3.40442   10.37646   -2.12352
       O    -3.56779    9.72262   -2.80514
      H1    -3.16959   10.23142   -3.53272
       H    -5.53648    2.95206   -4.36681
       O    -5.51811    3.90234   -4.19883
      H1    -5.10798    4.32794   -4.93580
       H    -1.30259   10.83556   -9.66854
       O    -1.96619   11.48199   -9.42798
      H1    -1.56741   11.80352   -8.65370
       H     5.30466    8.29544   -5.64248
       O     4.59931    8.73241   -5.16476
      H1     3.78787    8.57444   -5.73694
       H    -3.70055    3.48713  -12.40790
       O    -3.26856    3.82097  -13.24224
      H1    -4.04526    3.75585  -13.85879
       H    -1.37814    4.09204   -4.33845
       O    -0.57373    3.51921   -4.61631
      H1     0.04552    4.25689   -4.37293
       H    -2.78755    5.39365  -12.60562
       O    -2.68892    6.06872  -11.97104
      H1    -3.03393    6.85287  -12.36660
       H    -0.30730    7.76884   -7.91942
       O    -0.52614    7.05087   -7.26364
      H1    -0.60151    7.51851   -6.42507
       H    -2.89580    5.08173   -2.79491
       O    -2.47228    5.17893   -3.65747
      H1    -3.19520    5.47797   -4.23679
       H     3.67043    4.19114  -11.52681
       O     4.56310    3.79763  -11.80167
      H1     4.98013    4.46677  -12.35068
       H    -4.97308   11.38464   -6.22311
       O    -4.20788   11.98125   -6.12526
      H1    -4.66761   12.84522   -6.21677
       H    -1.42042    5.58604  -10.64794
       O    -0.75018    4.88105  -10.50816
      H1    -0.55640    4.65034  -11.46169
       H    -5.14247    5.31891   -1.61443
       O    -4.66831    4.46090   -1.70071
      H1    -4.84078    4.09288   -2.60374
       H     0.69189    6.09957   -3.53299
       O     1.12208    5.47323   -4.15289
      H1     1.67870    4.90894   -3.58646
       H     1.43189    8.78109   -9.22204
       O     0.47457    9.04835   -9.16026
      H1     0.03832    8.49143   -9.82626
       H    -1.94931    1.98514   -7.16821
       O    -2.67040    2.45819   -7.59682
      H1    -2.35512    2.34257   -8.51017
       H     3.12858   12.19507   -1.25459
       O     2.62423   12.12786   -2.09241
      H1     2.42112   11.12592   -2.12694
       H    -1.24033    1.97139  -11.31077
       O    -1.40274    2.27553  -10.39872
      H1    -1.33823    3.28424  -10.38544
       H    -7.69122    7.74640   -6.76668
       O    -6.77675    8.06314   -6.88107
      H1    -6.45736    7.36022   -7.48099
       H    -0.14202   -0.59418   -9.26827
       O     0.15195    0.39832   -9.23886
      H1    -0.45291    0.87012   -9.79643
       H     1.86976   14.43967   -8.49866
       O     1.30298   13.75597   -8.84391
      H1     0.80017   13.56844   -8.06998
       H    -1.48717    8.23156   -1.56500
       O    -1.82563    8.70287   -0.74737
      H1    -2.69741    8.35429   -0.57585
       H     0.87174   10.67728  -10.27822
       O     0.73894   11.19579  -11.08983
      H1     1.09182   12.05406  -10.83204
       H     0.13635   10.84407   -7.85679
       O    -0.07188   11.68206   -7.40942
      H1     0.76519   11.77453   -6.87994
       H     3.30946   12.18293   -5.11590
       O     2.56470   11.70611   -5.57869
      H1     1.88724   12.02630   -5.00418
       H     0.17855   13.71169   -5.31683
       O     0.18749   13.14295   -4.46972
      H1    -0.55092   12.60042   -4.74507
       H     4.72508    6.86338   -4.34942
       O     4.85405    6.22221   -3.63204
      H1     5.80983    6.01862   -3.71190
       H     2.15648    1.08588   -4.69170
       O     2.91331    1.62249   -4.86449
      H1     2.68895    1.86246   -5.76671
       H     4.46702    9.63284   -9.77204
       O     5.28828   10.14255   -9.89034
      H1     5.00300   11.08955   -9.76509
       H     5.88354    4.17291   -6.67884
       O     6.24913    4.36073   -7.57557
      H1     5.46631    4.77686   -8.01135
       H    -0.92028    8.28732   -3.52233
       O    -0.83809    7.60491   -2.84554
      H1    -1.48414    6.97072   -3.15749
       H     3.47325    7.46973   -9.77525
       O     3.20484    8.42354   -9.87602
      H1     3.14763    8.64211  -10.80854
       H     2.67599    2.92223   -3.56794
       O     2.64845    3.45491   -2.79121
      H1     2.00714    2.98470   -2.24042
       H    -0.00375    1.78379   -6.62228
       O    -0.53133    1.00474   -6.84569
      H1    -0.20462    0.71388   -7.72654
       H    -5.23360    5.86262   -8.44551
       O    -6.09625    6.13302   -8.71216
      H1    -5.98097    6.27210   -9.68453
       H    -0.37449   10.93502  -13.06546
       O    -0.65484   10.28494  -13.76491
      H1    -0.37566    9.52131  -13.24593
       H    -3.39744   13.50953  -11.66518
       O    -2.47876   13.48006  -11.31983
      H1    -2.42411   12.76895  -10.68923
       H    -3.51308   10.36734   -9.00095
       O    -4.11816    9.56526   -8.93206
      H1    -4.99463    9.95823   -8.81468
       H    -5.09798    9.57812   -3.18356
       O    -6.12645    9.59919   -3.15222
      H1    -6.28713    9.19170   -4.04723
       H    -6.87519    5.13232  -11.82939
       O    -6.06424    5.57628  -11.52164
      H1    -6.17786    6.50591  -11.83206
       H     3.17753    2.60404   -8.10633
       O     2.48553    2.67819   -7.39746
      H1     2.36921    3.59191   -7.24176
       H     1.67813    5.41342   -5.61301
       O     1.65988    5.18216   -6.60158
      H1     0.69226    4.99187   -6.73893
       H    -2.31911   12.10780   -4.12583
       O    -1.85813   11.47289   -4.70371
      H1    -2.57062   11.63607   -5.39133
       H    -3.70732    9.63801  -12.59469
       O    -3.77813    8.85588  -12.01451
      H1    -3.99230    9.23163  -11.16862
       H    -2.33927    7.53058   -7.39523
       O    -3.28287    7.59704   -7.17546
      H1    -3.49932    8.34035   -7.76546
       H    -4.29675    4.57095  -10.74452
       O    -4.07182    3.69056  -10.54109
      H1    -4.95201    3.33027  -10.51437
       H    -3.92316    4.01321   -6.88176
       O    -4.33664    4.86286   -6.60600
      H1    -3.62224    5.45910   -6.76591
       H     0.20757    0.20077   -4.17131
       O    -0.05567    0.86410   -3.48206
      H1    -0.37157    1.60094   -4.04195
       H     4.85860    4.72491   -4.70483
       O     4.70878    4.20469   -5.48617
      H1     4.69519    3.30452   -5.11630
       H     0.29393    7.41366  -13.23997
       O    -0.13717    7.89296  -12.43650
      H1    -0.96280    7.36451  -12.26071
       H     1.70903    7.91874   -0.09929
       O     2.13197    7.85329   -0.94712
      H1     3.02536    8.03930   -0.67290
       H    -1.37008    4.39988  -13.21513
       O    -0.49282    4.07567  -13.13454
      H1    -0.50881    3.13981  -13.19888
       H    -7.02146    9.74407   -7.87683
       O    -6.73059   10.58122   -8.39919
      H1    -7.51157   11.13103   -8.54733
       H     2.06106    8.79960   -2.35019
       O     2.06046    9.56625   -3.00866
      H1     2.67534    9.30276   -3.66258
       H     4.89018   11.99224   -6.89238
       O     5.29938   11.11998   -6.86500
      H1     4.59226   10.51967   -6.51013
       H     1.68206    7.21707   -6.50664
       O     2.27096    8.00021   -6.47479
      H1     1.69007    8.78532   -6.45118
       H    -0.60666   10.20800   -5.27695
       O     0.00110    9.45317   -5.21377
      H1     0.58165    9.65220   -4.45667
       H     3.20555    5.75645   -7.90432
       O     3.64905    5.73344   -8.81350
      H1     3.08749    5.03265   -9.29563

