180
frame 6 | Written by MDAnalysis XYZWriter (release 2.4.3)
       H   -15.05956    0.92199   -9.64811
       O   -14.79551    1.76607   -9.21283
      H1   -14.60498    2.28075  -10.02568
       H   -16.36218   -7.36606   -2.75492
       O   -15.92412   -7.23129   -3.61364
      H1   -16.37864   -7.81076   -4.25523
       H   -19.28702  -10.05803  -13.41551
       O   -19.25584   -9.20179  -13.82062
      H1   -18.35934   -9.12380  -14.21619
       H   -16.32476   -3.54098  -14.96858
       O   -17.18866   -3.36698  -15.43425
      H1   -17.79821   -3.26854  -14.61618
       H   -12.45372  -10.10211  -10.16030
       O   -12.63927   -9.59999  -10.94276
      H1   -13.37326  -10.07167  -11.42983
       H   -13.09314   -1.53901  -16.04809
       O   -13.26371   -1.06342  -16.83519
      H1   -14.12416   -0.64660  -16.69267
       H    -9.19737   -6.85419   -8.57863
       O    -9.91333   -6.15437   -8.41018
      H1   -10.52763   -6.32482   -9.13781
       H   -19.76641   -2.20702  -13.68087
       O   -18.93525   -2.54119  -13.31294
      H1   -18.36452   -1.74250  -13.28769
       H   -12.63727   -3.17364   -9.59745
       O   -12.10876   -2.36718   -9.82971
      H1   -12.02472   -1.99823   -8.93195
       H   -10.30628   -6.00775  -13.87936
       O   -10.70662   -6.85554  -13.61611
      H1   -11.21194   -7.04667  -14.42235
       H   -11.20406   -7.19900  -11.66727
       O   -11.08160   -7.20523  -10.71127
      H1   -11.47251   -8.12031  -10.43602
       H   -14.86332   -3.28359  -18.05225
       O   -15.76923   -3.41000  -18.28903
      H1   -16.25188   -3.91266  -17.56981
       H   -15.32268   -4.10362   -8.76593
       O   -16.23507   -4.04446   -8.50928
      H1   -16.22809   -3.29759   -7.86488
       H   -10.08910   -4.24107  -10.94170
       O    -9.14238   -3.96031  -10.82251
      H1    -9.17270   -3.41611  -10.04658
       H   -17.05028   -0.74207  -12.25276
       O   -17.36894   -0.35198  -13.09337
      H1   -16.60000   -0.37815  -13.66589
       H   -10.91954   -6.02187   -7.11352
       O   -11.47138   -6.15165   -6.26925
      H1   -11.19541   -7.01474   -6.04376
       H   -17.22089   -7.50428   -9.15603
       O   -17.12722   -8.21948   -9.87140
      H1   -16.26945   -8.67278   -9.57558
       H   -18.57276   -7.22628  -17.94749
       O   -18.89430   -7.52276  -17.06440
      H1   -18.45689   -8.37901  -16.98156
       H   -13.82792   -0.92217   -5.17025
       O   -13.98688   -0.55515   -6.04777
      H1   -13.21667   -0.90569   -6.54573
       H   -12.03559   -3.77974  -11.17200
       O   -11.84591   -4.19085  -12.02046
      H1   -12.58674   -4.81472  -12.01823
       H   -16.56644   -5.64223   -7.73410
       O   -17.10163   -6.45402   -7.79485
      H1   -17.99203   -6.07012   -7.81522
       H   -18.07892   -1.91211   -5.89702
       O   -18.73406   -1.96859   -5.15458
      H1   -18.21436   -2.10439   -4.33910
       H    -9.05520   -8.52720  -13.17017
       O    -8.75672   -9.31718  -12.69937
      H1    -9.65660   -9.70605  -12.52069
       H   -15.91383   -1.81554  -10.66610
       O   -16.83924   -2.09783  -10.65324
      H1   -16.87390   -2.71230   -9.95989
       H   -11.74040   -0.04671  -12.59526
       O   -12.45711    0.37075  -12.00442
      H1   -12.14159    1.29720  -11.91648
       H    -9.83257   -4.10822  -14.44273
       O    -8.97257   -4.50783  -14.45435
      H1    -8.68470   -4.39498  -15.38625
       H   -13.75333  -12.07416  -14.95168
       O   -12.95221  -11.91805  -15.48220
      H1   -12.53994  -11.47921  -14.70094
       H   -10.58969  -11.76314  -11.60077
       O   -10.81841  -11.10820  -12.25218
      H1   -11.49490  -10.51451  -11.80076
       H   -16.79883   -8.70624  -12.54385
       O   -16.89132   -7.74954  -12.58547
      H1   -17.16587   -7.58528  -11.67663
       H   -14.18153   -9.81310   -9.79918
       O   -14.94885   -9.37708   -9.40365
      H1   -14.73085   -8.48523   -9.64728
       H   -12.70000  -10.76883   -7.70245
       O   -12.25280  -10.74216   -8.59467
      H1   -11.33893  -10.74381   -8.22809
       H   -13.97538  -12.33399  -12.35194
       O   -14.22672  -11.35566  -12.51920
      H1   -15.18833  -11.48303  -12.51515
       H   -17.19750   -1.24588   -7.67370
       O   -16.49962   -1.60439   -7.19306
      H1   -15.97560   -0.81529   -7.02299
       H   -18.29407   -9.40843  -10.09423
       O   -18.57743  -10.32727   -9.96962
      H1   -19.52772  -10.30825  -10.08760
       H   -14.00873   -0.35463  -11.04148
       O   -14.61449   -0.82068  -10.44841
      H1   -13.96950   -1.21912   -9.82688
       H   -11.49789   -2.46752   -6.79247
       O   -11.87232   -1.70587   -7.29967
      H1   -11.09926   -1.06863   -7.32062
       H   -14.81794   -7.81404  -17.66630
       O   -15.12991   -7.25737  -18.35741
      H1   -15.82979   -6.77288  -17.82837
       H   -13.98944   -3.94685  -14.42576
       O   -14.88592   -4.02105  -14.11686
      H1   -14.89572   -5.01319  -14.07202
       H   -13.40657   -8.91485  -16.68735
       O   -14.10684   -9.48639  -17.13934
      H1   -13.96467  -10.36314  -16.75872
       H   -10.29780   -1.06857  -13.29129
       O   -10.65284   -0.40717  -13.84289
      H1    -9.92583    0.28734  -13.93644
       H   -17.58663  -11.47904  -12.90499
       O   -17.18778  -10.69136  -12.52564
      H1   -17.58592  -10.67634  -11.64207
       H   -17.88454   -3.71661  -19.19460
       O   -18.76391   -4.12647  -19.12992
      H1   -19.02035   -3.88126  -18.17448
       H   -15.57057   -2.86030   -5.23335
       O   -15.31202   -3.25911   -4.38323
      H1   -15.69813   -4.12057   -4.39267
       H   -16.31833   -9.36617  -17.05029
       O   -16.76211   -9.27121  -16.17368
      H1   -15.98182   -9.49204  -15.64699
       H   -12.20143   -3.74561  -13.64339
       O   -12.18064   -3.32469  -14.53444
      H1   -12.45193   -4.01507  -15.21468
       H   -12.68166   -7.14745   -7.31585
       O   -13.32319   -7.24937   -8.03431
      H1   -13.47301   -8.18431   -7.87036
       H   -13.59220    0.38199  -13.33250
       O   -14.48813    0.58967  -13.74548
      H1   -14.91673    1.15107  -13.05478
       H   -15.64250   -6.69981  -14.88193
       O   -14.91397   -6.78231  -14.20981
      H1   -15.45685   -7.12604  -13.41368
       H   -17.45967   -6.51276  -16.20894
       O   -16.60264   -6.01247  -16.22711
      H1   -16.88056   -5.29915  -15.66914
       H   -14.43008  -11.44449   -5.60577
       O   -14.14569  -10.75669   -6.29104
      H1   -14.15387   -9.92121   -5.82764
       H   -18.92689  -11.27852   -6.92217
       O   -18.68288  -10.38483   -7.14024
      H1   -18.54072  -10.32767   -8.07265
       H   -18.18277   -8.74072   -5.16962
       O   -18.66979   -9.01499   -4.41909
      H1   -19.56972   -9.05258   -4.86034
       H   -19.87003   -1.10083   -8.91407
       O   -19.26806   -0.70170   -8.15702
      H1   -19.94864   -0.57187   -7.46150
       H   -13.07899   -5.01291  -17.39186
       O   -13.45542   -5.04549  -16.49981
      H1   -13.84742   -5.96516  -16.37753
       H   -14.13069   -4.87939  -10.05772
       O   -13.58150   -4.57992   -9.24777
      H1   -13.17085   -5.38396   -8.83340
       H   -16.68441   -9.15163   -6.66550
       O   -16.16555   -8.45334   -6.26160
      H1   -16.45593   -7.69782   -6.73455
       H   -15.85702   -5.41441  -11.52500
       O   -14.89729   -5.14633  -11.65143
      H1   -14.94903   -4.47239  -12.29130
       H   -16.84320   -1.41689  -16.61218
       O   -16.39348   -0.55777  -16.82520
      H1   -16.43843   -0.13195  -15.93803
       H   -19.54172   -0.03769  -17.16726
       O   -19.45098   -0.35214  -16.20075
      H1   -18.50965   -0.13519  -15.94042
       H   -11.36562   -8.47374  -16.11502
       O   -12.21975   -7.98685  -15.99633
      H1   -12.19893   -7.30989  -16.66778

