180
frame 4 | Written by MDAnalysis XYZWriter (release 2.4.3)
       H   -17.53628   -1.36127    5.66735
       O   -16.98567   -1.52761    6.46542
      H1   -17.66216   -1.32716    7.13238
       H   -11.27002   -2.31056    0.37455
       O   -11.19808   -1.42156   -0.04734
      H1   -10.34637   -1.04294    0.28358
       H   -11.99861    1.90681   -2.95974
       O   -12.30990    1.16925   -2.43813
      H1   -11.73956    0.42912   -2.77635
       H   -14.65281    1.96497    2.36796
       O   -14.36181    2.00969    3.27275
      H1   -14.49629    2.97803    3.54427
       H   -14.49567    4.21529   -0.38786
       O   -14.59532    3.52798    0.32233
      H1   -15.29144    3.88038    0.88308
       H   -10.24385   -1.64732    7.86304
       O   -10.63274   -1.80209    6.94787
      H1   -10.32460   -2.66838    6.69794
       H   -13.88542    1.49716   -1.80374
       O   -14.84953    1.55761   -1.63721
      H1   -14.92233    1.96787   -0.80799
       H   -11.02844    1.77050    5.04124
       O   -11.69516    1.79892    5.74776
      H1   -12.27442    0.98685    5.65963
       H   -17.34378   -2.17089   -0.06014
       O   -17.75046   -2.69344   -0.70571
      H1   -18.60649   -2.75942   -0.26325
       H   -10.92915    2.84926    7.74145
       O   -11.23191    3.79946    7.70049
      H1   -11.23707    3.88196    6.74277
       H    -8.62136    2.70600    7.34069
       O    -8.58545    1.75090    7.38605
      H1    -9.31940    1.51554    7.96726
       H   -11.60353    0.92512    9.25117
       O   -10.89349    1.16026    8.63421
      H1   -11.42580    1.26335    7.77739
       H   -10.60324   -2.48804    3.32604
       O    -9.71271   -2.36904    3.65689
      H1    -9.56366   -3.25145    4.08856
       H   -16.08010    7.59186    5.60059
       O   -15.78900    7.56473    6.54429
      H1   -16.07001    8.41939    6.85074
       H   -12.70794    0.98018    0.93021
       O   -13.00232    0.08343    1.15170
      H1   -12.39599   -0.42824    0.55586
       H   -10.89786    5.64711    2.69721
       O   -10.24711    4.99769    2.42830
      H1   -10.71577    4.34312    1.94774
       H    -6.48026    2.31925    3.91594
       O    -7.42392    2.35621    3.93073
      H1    -7.72130    2.07624    4.77731
       H   -18.45543    9.11023    4.18903
       O   -18.72183    8.26114    3.82512
      H1   -18.52622    8.26609    2.88321
       H   -19.21545    5.82202    4.99577
       O   -18.69289    6.01584    5.75238
      H1   -18.74845    5.21416    6.25576
       H    -9.13583   -1.22662    2.19386
       O    -9.21171   -0.56215    1.51482
      H1    -8.41198   -0.87416    1.06904
       H   -17.29099    1.09065    0.40645
       O   -16.71193    0.96744    1.20726
      H1   -16.33000    0.10336    1.05486
       H   -15.32620   -4.63238    0.35786
       O   -14.65334   -4.11781   -0.11306
      H1   -14.90928   -3.24140    0.25678
       H   -12.26302   -0.90514    4.45687
       O   -12.52949   -0.72551    5.38733
      H1   -11.87139   -1.22281    5.84298
       H   -11.64760    5.92976    9.63092
       O   -12.47383    6.37495    9.37177
      H1   -12.43075    6.29941    8.41207
       H    -8.86053    6.08033    2.01194
       O    -8.04597    6.61140    1.67713
      H1    -7.45305    5.84228    1.67898
       H   -14.48776   -1.11811    0.95700
       O   -15.41806   -1.35544    1.18273
      H1   -15.17882   -1.95528    1.88847
       H   -17.11360    3.44314    3.18483
       O   -17.14363    3.59031    2.23974
      H1   -16.91376    2.75535    1.84799
       H   -14.48827    1.74712    5.75132
       O   -15.04604    1.87254    6.54744
      H1   -14.62195    2.61231    7.04408
       H    -9.71059    0.99386    2.60228
       O   -10.01345    1.93317    2.75052
      H1    -9.16783    2.34449    3.03545
       H   -17.77519   -1.29273   -1.94560
       O   -17.62266   -0.44641   -2.27268
      H1   -16.65993   -0.42038   -2.26043
       H   -15.77345    6.61151    0.94518
       O   -15.14393    6.39758    1.62569
      H1   -14.38062    6.95426    1.40879
       H   -19.78037    0.27903    4.31010
       O   -19.39640    0.04046    3.45816
      H1   -18.43820    0.22476    3.57348
       H   -16.85472    6.50911    7.67880
       O   -17.11319    5.83770    8.33198
      H1   -16.26755    5.36878    8.45912
       H   -10.56329    2.71185   -0.01884
       O   -11.36574    2.52086    0.53180
      H1   -10.87281    2.18541    1.30572
       H   -12.20915    9.50871    3.70105
       O   -12.74112   10.23027    4.07214
      H1   -12.09486   10.92992    4.31595
       H   -15.33823    4.62562    4.43514
       O   -14.34254    4.72596    4.43389
      H1   -14.28440    5.30170    3.62071
       H   -12.97902   -2.54367    3.11120
       O   -12.31257   -1.85100    2.96018
      H1   -12.79069   -1.08165    2.47897
       H   -17.77968    8.46019    0.54764
       O   -18.04904    9.05756    1.26379
      H1   -17.47031    9.80565    1.12846
       H   -15.82517    2.47768   -2.75302
       O   -16.11845    3.07564   -3.46597
      H1   -17.09444    2.84124   -3.43414
       H   -15.36218    7.39022    3.06643
       O   -15.53219    8.06069    3.66491
      H1   -16.30410    8.50403    3.36538
       H   -10.03771    4.59491    4.24688
       O    -9.85522    4.47441    5.17955
      H1   -10.09161    5.39301    5.37392
       H   -15.52158    1.08026    8.32015
       O   -15.28181    1.10673    9.25395
      H1   -14.85377    0.20180    9.20098
       H   -18.02607    0.68096    8.59430
       O   -18.69419    0.24623    8.03109
      H1   -18.90736   -0.55734    8.55818
       H   -13.95385   -2.06746    9.83132
       O   -13.62799   -1.54332    9.09202
      H1   -13.59004   -2.18126    8.35351
       H   -16.82351    6.13022   -0.87265
       O   -17.36654    6.56088   -0.18407
      H1   -17.99464    5.87959   -0.02881
       H   -12.22577    6.13810    5.31181
       O   -12.11971    5.99832    4.36334
      H1   -12.79690    5.31040    4.26196
       H   -12.73109    7.15944    0.06763
       O   -12.68863    7.45664    0.98876
      H1   -12.90754    8.36152    0.81593
       H   -14.00254    4.21391    8.46870
       O   -14.88687    3.72014    8.41578
      H1   -14.80513    2.97939    9.02928
       H   -14.30092    6.53992    6.63938
       O   -13.50598    5.93596    6.75231
      H1   -13.74542    5.20140    6.08917
       H   -14.52859   -2.91507    4.26989
       O   -14.59168   -3.00886    3.28588
      H1   -14.34162   -4.02316    3.22722
       H   -10.08616    7.87030    5.82303
       O   -10.35624    7.20306    6.44614
      H1    -9.65346    7.06817    7.11283
       H   -15.27972   -2.36296    6.32141
       O   -14.40423   -2.56535    5.95850
      H1   -14.04814   -1.61789    5.93611
       H   -17.72607    4.20347    7.76306
       O   -18.16617    3.56693    7.13547
      H1   -18.93503    3.23518    7.58073
       H   -11.88233    4.50914   -0.35912
       O   -11.90215    5.08277   -1.09852
      H1   -11.94000    4.53524   -1.91854
       H    -9.11538   -0.10513    6.10955
       O    -8.74261   -0.18872    5.25081
      H1    -9.27591   -0.89300    4.87009
       H   -13.67705    5.74919   -2.03595
       O   -14.57708    5.31297   -1.93999
      H1   -14.50733    4.54354   -2.55119
       H   -18.08207    0.85438   -1.31296
       O   -18.59488    1.51168   -0.81644
      H1   -19.44742    1.07826   -0.95531
       H   -18.60229    4.57451    1.30134
       O   -19.35357    4.93707    0.82067
      H1   -20.06430    5.02594    1.48911
       H   -17.20424    3.92235    5.59231
       O   -16.84447    4.09951    4.75284
      H1   -17.30742    4.92430    4.51170
       H   -16.47400    1.23401    3.74830
       O   -17.05050    0.79784    4.42494
      H1   -16.74679    1.23102    5.21436

