180
frame 3 | Written by MDAnalysis XYZWriter (release 2.4.3)
       H    -0.11849   17.07079  -13.20519
       O     0.22125   17.75255  -12.62423
      H1     0.77205   18.31108  -13.30920
       H   -11.48035   19.66414   -8.64481
       O   -11.60706   19.45000   -9.59711
      H1   -11.66732   18.47953   -9.59324
       H    -0.96369   14.73283   -2.05693
       O    -1.55005   14.49270   -1.32840
      H1    -1.60671   15.34944   -0.90045
       H    -3.81461   17.39304  -12.18037
       O    -4.38435   17.74171  -12.84627
      H1    -4.28745   16.98107  -13.47661
       H    -5.62785   17.81477   -8.15737
       O    -4.71424   18.05342   -8.01701
      H1    -4.81063   18.77872   -7.44908
       H    -3.32219   12.39539   -7.97559
       O    -2.74027   11.82465   -8.39500
      H1    -1.90670   12.18758   -8.01377
       H    -5.14048   16.69408   -5.07015
       O    -4.27576   16.43072   -4.65288
      H1    -4.58152   15.91648   -3.84201
       H    -1.68610   16.09930  -14.79124
       O    -0.72154   15.95806  -14.88752
      H1    -0.51564   15.25698  -14.28572
       H    -6.67543   12.59515   -7.27880
       O    -6.99489   13.47969   -7.35551
      H1    -6.82247   13.73788   -6.42498
       H    -7.23930   17.68261   -6.14801
       O    -6.91394   17.28863   -5.28607
      H1    -7.38500   16.39714   -5.38883
       H     2.25502   19.50013   -4.78579
       O     1.47415   18.96102   -4.71588
      H1     1.13100   19.09973   -5.63694
       H     0.82560   17.65057   -1.47118
       O     1.10207   18.11412   -0.65368
      H1     0.33233   18.73990   -0.45749
       H     1.97078   16.29251  -10.83533
       O     2.19064   17.20741  -10.83497
      H1     1.44346   17.40315  -11.48829
       H    -6.18768   17.76542   -0.56001
       O    -6.27136   18.37075    0.20672
      H1    -5.83764   19.14022   -0.17848
       H    -3.59758   14.86899  -12.08442
       O    -4.37804   14.33738  -12.20317
      H1    -4.37039   14.34555  -13.18152
       H    -3.05690   13.95802   -0.98053
       O    -3.91749   13.58134   -0.65983
      H1    -3.72167   12.90914    0.06394
       H    -2.86430   16.87918    0.03414
       O    -1.89026   16.99967   -0.13562
      H1    -1.84462   17.25596   -1.09041
       H    -7.86581   16.36996   -2.34751
       O    -6.96388   16.71190   -2.10443
      H1    -6.74218   17.07856   -3.00366
       H    -3.58070   17.90856   -4.75518
       O    -3.41410   18.92663   -4.78950
      H1    -4.16995   19.24950   -4.21840
       H    -6.02749   11.82491   -9.34599
       O    -5.61646   12.32856  -10.04025
      H1    -6.15238   12.08881  -10.80494
       H    -1.99224   15.99995   -5.60532
       O    -1.12821   16.38755   -5.29990
      H1    -1.07386   17.09364   -5.96112
       H    -6.09510   14.95421   -2.47346
       O    -5.45499   14.43547   -2.95555
      H1    -5.08432   13.88470   -2.25291
       H     1.24739   14.73676   -6.91854
       O     0.50092   15.33136   -7.24906
      H1     0.00462   15.53591   -6.44798
       H    -7.38725   19.01564   -8.30535
       O    -7.44015   18.18805   -7.82923
      H1    -8.00705   17.68317   -8.45205
       H     0.51276   13.92103   -2.57750
       O     0.15317   14.12339   -3.47418
      H1    -0.51022   13.37585   -3.60093
       H     0.02655   12.58086   -8.21471
       O    -0.45430   12.63759   -7.35044
      H1    -0.54481   13.66337   -7.43563
       H     2.58317   14.55045   -4.91311
       O     2.04919   13.75826   -5.24089
      H1     1.36130   13.83298   -4.53192
       H    -2.37013   13.12140   -4.45940
       O    -1.89380   12.53423   -3.85620
      H1    -2.59348   12.14818   -3.37187
       H   -10.66206   16.88530   -6.98254
       O    -9.67595   16.69211   -6.92949
      H1    -9.33781   17.41500   -6.35800
       H    -3.77522   16.60822   -8.18209
       O    -3.44905   15.64620   -8.29531
      H1    -4.24123   15.26166   -8.72655
       H    -9.72257   13.65428  -10.14543
       O   -10.39704   12.96889   -9.88848
      H1   -10.35423   13.04282   -8.90313
       H   -10.00636   14.79212  -12.32417
       O    -9.15755   14.52764  -11.93134
      H1    -9.05945   15.27153  -11.32072
       H    -7.70417   19.74235  -15.25797
       O    -6.89568   19.17486  -15.52805
      H1    -6.98217   18.48595  -14.82803
       H    -3.09271   14.40324   -6.81064
       O    -2.97996   14.36437   -5.83920
      H1    -3.59048   15.06582   -5.59123
       H   -12.79104   15.88508   -7.98149
       O   -12.50135   16.79029   -7.70599
      H1   -13.32457   17.19736   -7.36331
       H    -8.59740   11.60653   -3.73866
       O    -8.31262   12.24103   -3.08136
      H1    -7.51646   11.99677   -2.61672
       H    -7.90375   14.44908  -13.34854
       O    -7.39858   14.32026  -14.15498
      H1    -7.16521   15.22394  -14.30960
       H    -8.83182   19.66982   -0.84381
       O    -8.81784   18.99789   -0.13567
      H1    -7.90074   18.77757   -0.10835
       H    -5.36323   14.99404  -10.62621
       O    -5.68215   15.04689   -9.69416
      H1    -5.81430   14.05535   -9.43180
       H    -8.24573   14.12163   -5.15301
       O    -7.38514   14.58379   -5.00237
      H1    -7.08115   14.12561   -4.19565
       H    -7.48711   15.34742   -9.82507
       O    -8.02735   16.13757   -9.97729
      H1    -7.48896   16.68166  -10.57343
       H   -10.20729   14.89785   -3.03523
       O    -9.91105   15.80015   -2.88460
      H1   -10.64392   16.42032   -2.98901
       H     0.63034   14.39030  -11.65265
       O     1.33672   14.62929  -12.22080
      H1     1.05555   14.07621  -12.99247
       H    -1.76337   17.17771  -10.98831
       O    -2.58828   16.72708  -11.16959
      H1    -2.94470   16.63102  -10.24416
       H    -1.01821   18.49136   -2.99798
       O    -1.03218   17.57951   -2.62524
      H1    -1.11354   17.03447   -3.41487
       H   -11.48076   16.86972   -9.24411
       O   -11.28260   16.93632  -10.18246
      H1   -12.11078   16.63939  -10.61826
       H    -8.60648   13.71493   -7.61146
       O    -9.50937   14.02857   -7.39403
      H1    -9.42100   14.99850   -7.30697
       H     0.05869   12.43340  -10.70213
       O    -0.14889   13.27559  -10.15348
      H1    -1.05808   13.45138  -10.41340
       H    -6.59606   12.74304  -13.32211
       O    -6.38263   11.89560  -12.85668
      H1    -5.45514   11.65076  -13.05737
       H    -9.49288   18.53577  -12.58749
       O   -10.19202   17.85843  -12.66440
      H1   -10.31831   17.65609  -11.72555
       H    -5.46757   11.86293   -3.93561
       O    -5.21293   11.89137   -4.86272
      H1    -4.42327   12.44464   -4.80738
       H    -3.90989   12.50768  -11.05384
       O    -3.00619   12.06744  -11.00367
      H1    -2.96011   11.96646  -10.03126
       H   -12.31989   13.64054   -6.61989
       O   -12.07566   13.59684   -7.59867
      H1   -11.12795   13.79802   -7.54991
       H     1.26777   16.04530   -3.54043
       O     1.97090   16.62779   -3.21483
      H1     1.82613   17.42823   -3.77322
       H    -7.20278   17.20940  -13.13179
       O    -7.65861   17.19168  -13.96946
      H1    -8.58618   17.25756  -13.67899
       H    -3.66860   15.22981  -15.13884
       O    -3.38667   16.17922  -14.98620
      H1    -3.90340   16.67860  -15.66988
       H    -5.60265   10.25959   -8.05085
       O    -6.36803   10.83518   -7.90736
      H1    -6.98573   10.24989   -7.50263
       H    -0.82942   19.39183   -7.64548
       O    -0.47289   18.67625   -7.11385
      H1     0.30998   18.48135   -7.61562
       H    -6.79638   18.83731  -11.34658
       O    -6.52781   17.92130  -11.25501
      H1    -5.56280   18.02797  -11.38705
       H     1.65921   16.94449   -7.55979
       O     2.22881   17.59429   -8.00247
      H1     2.02194   17.49507   -8.99167

