180
frame 5 | Written by MDAnalysis XYZWriter (release 2.4.3)
       H     4.77914   11.46718   15.16148
       O     5.67817   11.43437   14.69384
      H1     5.97278   12.32746   14.88711
       H     2.63182   11.69651   19.66355
       O     2.24536   12.59342   19.48626
      H1     2.90864   12.99944   18.95279
       H     0.61980   15.28111   16.58996
       O     0.70261   14.65699   17.32503
      H1     0.12385   15.02894   18.04689
       H    -4.32110   17.31760   19.23437
       O    -5.27710   17.26856   19.36404
      H1    -5.41119   18.11988   19.88477
       H    -8.37470   16.57094   18.78499
       O    -9.28497   16.64354   18.56759
      H1    -9.43611   15.91335   17.95100
       H     4.04187   17.95217   14.47553
       O     4.51071   18.10922   15.30862
      H1     4.85628   18.98166   15.35456
       H    -0.94506   11.35188   11.27249
       O    -0.20420   11.60972   10.71128
      H1     0.36880   10.82952   10.71365
       H    -8.28865   15.86101   14.78309
       O    -8.76681   16.70667   14.85092
      H1    -8.94943   16.71501   13.88761
       H    -2.97183   12.31666   11.89419
       O    -2.30061   11.95477   12.54119
      H1    -1.65670   12.75727   12.45697
       H     1.99365   10.64606   14.37057
       O     2.01881   11.32835   13.67085
      H1     1.12216   11.18574   13.27510
       H    -3.59888    9.71543   18.61785
       O    -4.50202    9.43689   18.51658
      H1    -4.58020    9.05370   17.65043
       H    -3.80645   16.94505    8.87903
       O    -3.92350   16.98480    9.84937
      H1    -3.08898   16.61783   10.18620
       H    -0.13483   19.23691   19.60858
       O    -0.43576   18.45313   18.97679
      H1     0.37020   17.95352   19.03665
       H     6.23393   14.85885   19.43252
       O     7.12862   15.29401   19.64648
      H1     7.58767   15.29415   18.78761
       H    -5.76691   14.99207   12.15691
       O    -5.69966   14.19948   12.71027
      H1    -5.10249   14.53754   13.42881
       H     0.20218   16.72545   14.73855
       O     0.52285   15.83986   14.83284
      H1    -0.25487   15.27079   14.78023
       H   -12.40275   18.03737   20.04307
       O   -11.89755   18.45496   19.30123
      H1   -11.84673   17.78766   18.59366
       H    -3.89529   11.88972   18.47512
       O    -2.96681   11.92027   18.16631
      H1    -3.03347   11.88590   17.16950
       H    -8.10238   12.04980   12.31293
       O    -8.80960   12.34899   12.86992
      H1    -8.96756   11.67924   13.53771
       H     4.38655   19.47733   12.58985
       O     5.15637   18.96770   12.49412
      H1     5.00317   18.55148   11.67376
       H    -6.50086   10.02438   15.21393
       O    -6.52152    9.21463   15.78682
      H1    -6.45642    8.53918   15.09657
       H     2.37038   16.34419   13.97439
       O     2.86821   16.92576   13.36102
      H1     2.69879   16.59829   12.50304
       H    -8.37938    9.84757   18.95088
       O    -7.98414    9.04199   18.47875
      H1    -7.25978    9.39095   17.94872
       H    -9.43295   19.70911   18.17606
       O    -9.16998   19.18733   17.33711
      H1    -9.26464   18.26898   17.74687
       H    -6.21280   16.89050   17.83643
       O    -6.77107   16.33466   17.28519
      H1    -6.59422   16.71678   16.38974
       H    -6.90492   14.43057   13.87136
       O    -7.58138   14.25186   14.58133
      H1    -8.13964   13.52601   14.17150
       H   -10.02451   15.99140   11.19473
       O    -9.64412   16.04216   12.09248
      H1   -10.45251   16.16419   12.61714
       H    -0.01113   11.25398   15.62597
       O    -0.44964   10.58044   15.08482
      H1    -0.19326    9.80199   15.58514
       H    -2.54216   14.57524   14.76138
       O    -1.68590   14.09287   15.01234
      H1    -1.97278   13.32378   15.49786
       H    -1.12236   17.88291   11.31000
       O    -1.72717   17.38089   11.84435
      H1    -1.80323   17.87516   12.67106
       H     0.96684    7.89677   18.95456
       O     1.18055    8.65795   18.40261
      H1     1.46029    8.22268   17.53958
       H    -4.26542   14.90969   15.53901
       O    -4.17845   15.60017   14.83693
      H1    -4.18139   16.37793   15.37689
       H   -11.68499   15.99748   16.12949
       O   -11.01949   16.65897   16.39990
      H1   -10.23839   16.41638   15.83736
       H     1.57114   14.28946   10.95165
       O     1.85812   14.91063   11.62279
      H1     0.98325   15.27328   11.97589
       H     1.70066   16.10758   18.01275
       O     1.99361   16.70360   18.72553
      H1     2.19456   17.51309   18.25893
       H    -3.91734   13.43260   10.14350
       O    -4.59003   12.86174   10.63460
      H1    -4.93761   13.45362   11.34730
       H    -5.24248   11.94286   15.61654
       O    -5.87255   11.61806   14.90480
      H1    -6.62457   12.18163   15.09087
       H    -6.40129   17.38630   12.72524
       O    -6.38073   16.67029   12.08876
      H1    -7.20132   16.25381   12.31576
       H    -2.45162   12.80036    8.86800
       O    -2.68880   13.74540    9.05580
      H1    -1.84597   14.13167    8.77874
       H     5.52967   16.72279   12.57448
       O     5.91554   16.19173   13.26696
      H1     5.61482   16.76489   14.04221
       H     4.37159   14.84516   18.78237
       O     4.86421   14.00249   18.70624
      H1     5.14381   14.00257   17.78292
       H    -1.13341   19.14687   17.55353
       O    -1.72562   19.60082   16.94234
      H1    -2.44610   19.97682   17.48705
       H    -5.86795   14.42599   17.04628
       O    -5.11253   13.97073   16.67957
      H1    -4.67984   13.70464   17.50672
       H     1.07027   18.53838    9.70719
       O     0.38755   18.01623   10.14980
      H1     0.76348   17.08361   10.15282
       H     5.54205   14.51357   14.92982
       O     5.59391   14.10677   15.80550
      H1     6.48827   14.23160   16.15501
       H    -1.97170   14.36051   10.69109
       O    -1.30958   14.52801   11.38301
      H1    -1.54766   15.38849   11.74727
       H     3.83135   18.67292   17.09447
       O     3.27546   19.16009   17.70617
      H1     2.75059   19.77029   17.16604
       H    -1.03114    8.82961   18.54522
       O    -1.59660    8.10730   18.72884
      H1    -1.38790    7.57742   17.93780
       H    -2.58568    6.22689   16.21665
       O    -2.66764    6.49441   15.27498
      H1    -2.98858    7.40029   15.55598
       H    -6.49422   19.11565   14.02481
       O    -7.14930   18.57420   13.59561
      H1    -7.57028   18.28899   14.40781
       H     2.59245   11.51538   16.66283
       O     3.42333   11.88020   16.30544
      H1     3.10289   12.55669   15.70059
       H     1.18188   11.46989   17.91056
       O     0.91701   11.90026   17.09302
      H1     0.94339   12.87787   17.30891
       H    -1.61440   19.65918   14.75093
       O    -1.89204   18.96364   14.11589
      H1    -2.53663   19.33836   13.50713
       H    -2.97119   11.61714   14.54438
       O    -2.83336   11.38407   15.46066
      H1    -2.02223   10.90491   15.29236
       H    -2.95128    9.55850   15.86607
       O    -3.50143    8.82863   16.02534
      H1    -4.40872    9.12646   15.73052
       H    -6.28885   18.39887   11.04811
       O    -5.58090   18.99395   10.74759
      H1    -4.89533   18.30663   10.49343
       H   -11.52551   19.86500   15.02565
       O   -11.97996   19.04177   15.21233
      H1   -11.29499   18.47918   15.66162
       H    -1.77570   17.20114   18.63021
       O    -2.58649   16.69503   18.40327
      H1    -2.41990   15.79677   18.72412
       H    -3.45327   17.70794   16.64362
       O    -4.02376   18.16628   15.97537
      H1    -3.35373   18.53250   15.31823
       H    -9.98169   14.36914   19.26929
       O   -10.37012   13.51146   18.90433
      H1   -11.30007   13.66214   18.83320

