180
frame 10 | Written by MDAnalysis XYZWriter (release 2.4.3)
       H   -18.35090    0.92421   10.55050
       O   -19.15291    0.68993   11.04628
      H1   -19.33939    1.40357   11.64992
       H   -16.80619    6.41310   10.24300
       O   -16.62469    6.86853   11.08489
      H1   -17.42402    7.21067   11.40882
       H   -10.94912    7.35355   12.74555
       O   -11.29913    6.84175   13.49003
      H1   -12.11332    7.15323   13.79259
       H   -16.27948    4.77876    7.24169
       O   -15.77295    4.22896    6.65134
      H1   -14.99601    4.02816    7.21782
       H   -17.07960    1.11551    5.61092
       O   -16.70564    0.48338    5.01291
      H1   -16.92298    0.71932    4.09857
       H    -8.56511    8.46242    6.52013
       O    -8.02443    7.72714    6.99269
      H1    -8.61073    7.23977    7.59275
       H   -11.36393    0.94797   12.22262
       O   -11.69646    0.12040   12.61207
      H1   -11.73998    0.31790   13.57810
       H   -16.80313    2.75467    7.02778
       O   -17.45951    2.06928    7.21621
      H1   -18.15602    2.57216    7.64861
       H   -12.91077   10.58839    6.49559
       O   -12.18222   10.10322    6.90535
      H1   -12.21819   10.09634    7.87473
       H   -12.09519    6.59004    8.25321
       O   -11.52373    5.99320    7.69074
      H1   -11.42578    6.62385    6.94357
       H   -13.55253    2.32042   10.34094
       O   -12.65189    2.35076   10.00378
      H1   -12.44483    1.57249    9.49425
       H   -10.66431    3.98321   14.83881
       O   -10.25383    4.41025   14.04730
      H1   -10.51661    5.34769   13.87597
       H   -15.13202    7.64850   10.88897
       O   -14.24916    8.07840   10.99399
      H1   -14.45370    8.96290   11.37894
       H   -16.32319    8.83345    7.87633
       O   -15.56849    8.91139    8.41578
      H1   -15.85975    8.88445    9.34076
       H    -9.50012    4.15402    5.25881
       O    -9.07652    4.36223    4.37723
      H1    -8.30300    3.79086    4.19718
       H   -10.96043    3.00793    6.89939
       O   -10.00696    2.92011    6.71837
      H1    -9.48839    3.25678    7.41748
       H   -15.70857    2.80532   12.85986
       O   -16.03471    3.16460   13.70079
      H1   -15.64352    4.03125   13.79024
       H   -18.94408    2.65240   13.91475
       O   -18.56914    2.62710   13.03213
      H1   -17.64439    2.78491   13.08006
       H   -17.10294    5.64564    3.33585
       O   -17.33557    5.30804    4.19728
      H1   -16.50737    4.98061    4.46424
       H    -9.40826    7.69543   10.92254
       O   -10.02431    8.12970   11.53583
      H1    -9.50876    8.71724   12.13469
       H   -10.44323   10.11966    6.22114
       O    -9.50625    9.94932    5.96488
      H1    -9.49546    9.75687    5.02740
       H   -10.64763    0.59738    2.93122
       O   -10.55564    1.33327    2.29725
      H1   -10.74532    0.86110    1.47088
       H   -14.85945    1.03928   11.99411
       O   -14.97085    1.90036   11.52805
      H1   -15.79514    1.92731   10.98152
       H    -8.31574    6.47379    4.10841
       O    -8.07273    7.23297    3.64313
      H1    -7.85464    6.73870    2.87043
       H   -11.46218   -1.15688    4.17936
       O   -10.64751   -0.84627    3.76214
      H1   -10.17457   -0.48505    4.54925
       H    -9.47077    1.68598    9.43984
       O    -9.42347    0.81997    9.83087
      H1    -9.42794    0.96259   10.79064
       H   -16.98963    1.30051    8.57615
       O   -16.74073    1.26817    9.56311
      H1   -15.91246    0.72599    9.53630
       H   -14.42573   -1.87108    5.25305
       O   -14.15862   -0.93542    5.35830
      H1   -15.01368   -0.47744    5.14363
       H   -10.66149   -3.04698    6.75802
       O   -11.55693   -2.78215    6.46907
      H1   -11.73453   -3.31561    5.68779
       H    -8.29829    5.11262   12.04320
       O    -8.37864    4.13743   11.83416
      H1    -9.25464    3.83643   12.04708
       H   -13.15340   -2.34427   11.88120
       O   -13.15466   -2.31006   10.90864
      H1   -13.84933   -1.74488   10.58343
       H   -14.77685   -1.17525   12.85154
       O   -14.37161   -0.32536   13.03591
      H1   -13.49472   -0.43394   12.56083
       H   -12.35155    8.71178    5.80230
       O   -12.37674    7.97165    5.19322
      H1   -13.18268    7.53828    5.32716
       H    -6.04843    0.81145    5.70742
       O    -6.77529    1.26920    6.19066
      H1    -6.49596    2.15388    6.09519
       H   -18.67256    6.20143    5.31607
       O   -18.76883    6.88740    6.04658
      H1   -18.08633    7.50939    5.78576
       H    -8.61212    3.58147   10.01863
       O    -8.52933    3.62797    9.03684
      H1    -7.61041    3.88739    8.81847
       H   -14.98598    3.24555    1.06573
       O   -15.08815    4.19881    0.85862
      H1   -14.80652    4.31361   -0.06526
       H   -12.97688    4.87871    2.96316
       O   -13.62477    5.55354    2.79232
      H1   -13.99103    5.15655    2.02498
       H   -15.36291    6.31658   12.76540
       O   -15.10093    5.84585   13.54774
      H1   -14.39050    6.35093   14.02835
       H    -9.76737    1.07720    6.30522
       O    -9.86713    0.09640    6.29603
      H1   -10.59634   -0.16059    6.91566
       H   -12.08216   -0.46631    8.11585
       O   -12.66947    0.17396    7.77721
      H1   -12.98452   -0.27570    6.98215
       H   -14.07590   -0.15235    8.81566
       O   -14.74719   -0.34027    9.49997
      H1   -15.42930   -0.85324    9.08399
       H   -11.64757    2.61065   11.19858
       O   -10.83436    2.62745   11.76773
      H1   -11.15083    3.14564   12.52800
       H    -8.21825    0.67866    4.51569
       O    -8.10653    0.57535    3.51803
      H1    -8.86094    1.03518    3.10961
       H   -19.58101    2.88796    2.90401
       O   -18.80700    2.84678    2.35911
      H1   -18.18601    3.47613    2.71806
       H   -17.95565    6.22295    7.36172
       O   -17.60388    5.64995    8.02837
      H1   -18.33867    5.15481    8.39439
       H   -14.34916    6.09954    4.28880
       O   -14.79968    6.38068    5.06986
      H1   -14.95705    5.56801    5.56456
       H   -10.13043    6.84813    8.63130
       O    -9.28618    6.61337    9.07902
      H1    -9.27998    5.67706    9.04736
       H   -12.69929    8.41330    9.90143
       O   -11.91076    8.56729    9.40647
      H1   -11.18450    8.55630   10.09081
       H    -7.17819   -0.06609    7.20976
       O    -7.34354   -0.87239    7.73917
      H1    -8.17116   -1.24609    7.41732
       H   -16.05641    7.72244    5.28524
       O   -16.62284    8.49201    5.49539
      H1   -16.88571    8.80141    4.58658
       H   -10.67675    4.04648    3.39793
       O   -11.35572    3.87601    2.72991
      H1   -11.51651    2.91414    2.81246
       H   -15.19362    9.62865    5.39369
       O   -14.47689   10.23144    5.12887
      H1   -13.98949    9.70189    4.44320
       H   -11.66220   -1.38257   10.43245
       O   -10.87695   -1.44329    9.87794
      H1   -10.48484   -0.53538    9.79146
       H   -14.40594    1.07466    1.41551
       O   -15.08250    1.62025    1.85393
      H1   -15.91649    1.15262    1.73281
       H   -12.56407    6.77261    1.61551
       O   -11.84701    6.75409    0.93761
      H1   -11.07901    7.19102    1.35479
       H   -17.95572   -1.83075    8.40048
       O   -16.98832   -2.02893    8.38966
      H1   -16.95110   -2.71272    9.07832
       H   -12.82584    4.62930    7.69499
       O   -13.24693    3.76736    7.78741
      H1   -12.86928    3.41099    8.59111
       H   -13.09943   11.95398    9.77990
       O   -12.55718   11.28610   10.19211
      H1   -12.70824   10.43396    9.73575
       H   -13.53542   -3.18707    9.17435
       O   -13.66052   -3.94084    8.56090
      H1   -13.03882   -3.65109    7.83532

