180
frame 10 | Written by MDAnalysis XYZWriter (release 2.4.3)
       H    -2.90508   14.11125    7.76928
       O    -3.19892   14.39870    6.90548
      H1    -2.34983   14.36820    6.44760
       H    -4.02865   12.10535   12.33114
       O    -3.22167   12.02860   12.92057
      H1    -2.64658   12.69947   12.48545
       H    -5.67769   14.96799    4.58115
       O    -5.79613   15.78253    5.06478
      H1    -6.17747   16.44767    4.44362
       H    -3.63057   17.78678   10.75228
       O    -3.75126   17.74377   11.69629
      H1    -3.64224   16.74965   11.90087
       H    -1.23049   10.79948    8.67075
       O    -2.08867   11.13542    9.06258
      H1    -1.80265   11.11828    9.97454
       H    -4.26626   13.17299    6.57350
       O    -4.82962   12.50942    6.05564
      H1    -5.32880   11.95910    6.71275
       H    -5.86028   16.84515    7.48145
       O    -5.38761   16.15499    7.95414
      H1    -4.97513   15.64830    7.23646
       H    -4.80369   15.15438   12.07421
       O    -3.97513   15.18723   12.64929
      H1    -4.15791   14.86535   13.54372
       H    -0.21586   16.72152   15.31280
       O    -0.07611   15.93364   15.83473
      H1    -0.84286   15.35916   15.70753
       H   -10.82635   16.12637   10.56503
       O    -9.94593   16.32823   10.20429
      H1   -10.01350   15.59390    9.50165
       H    -0.12951   12.97786    4.17531
       O     0.04611   12.84893    5.14005
      H1    -0.83677   12.41176    5.36398
       H   -11.07278   13.90196    7.98553
       O   -10.40822   14.04402    8.68845
      H1   -10.58298   13.34673    9.35546
       H    -3.93375   14.26365    1.95204
       O    -4.88311   14.48163    1.66405
      H1    -5.26965   14.05143    2.41105
       H    -3.63220   18.33534    1.58854
       O    -2.88759   18.94030    1.76432
      H1    -2.97965   19.60424    1.07126
       H     1.71713   15.39658   14.78048
       O     2.47206   15.53642   14.16298
      H1     2.11715   16.24402   13.65522
       H    -6.45679   15.20806   10.82070
       O    -5.54757   15.04473   10.61157
      H1    -5.46912   15.54520    9.73092
       H    -6.29345   14.33960   15.91802
       O    -7.25068   14.15094   15.84072
      H1    -7.54999   14.61949   15.03997
       H   -10.66710   18.55234   11.70168
       O   -10.90356   18.37618   12.61066
      H1   -11.84371   18.03073   12.55298
       H    -1.18887   15.51466    5.26576
       O    -0.61052   15.16003    5.95721
      H1    -0.18876   14.30590    5.55508
       H   -11.70969   17.69149    7.99714
       O   -10.71138   17.51092    7.91189
      H1   -10.36450   17.33481    8.81275
       H    -2.84278   14.30940   15.94259
       O    -1.94359   14.01788   16.01068
      H1    -1.86614   13.15192   15.60830
       H     1.23286   18.81407   12.89481
       O     1.13274   17.87285   13.12159
      H1     0.26727   17.88625   13.55878
       H    -5.20110   19.77038    4.95242
       O    -4.63646   19.41817    4.29914
      H1    -5.30611   19.21717    3.60917
       H    -8.31712   10.76206   12.18525
       O    -8.25244   11.72462   12.34456
      H1    -8.03860   12.15045   11.52838
       H    -3.96063   16.46806    5.05445
       O    -3.41710   17.00527    4.43924
      H1    -3.90657   17.81463    4.12656
       H    -4.70268   14.28872   16.74221
       O    -4.51696   14.92176   16.03393
      H1    -4.31826   15.75391   16.46288
       H     2.57131   11.79397    8.57557
       O     2.59133   12.70045    8.22541
      H1     2.20022   13.14392    9.03507
       H     2.01687   15.44614   10.31813
       O     2.30435   15.99758    9.61469
      H1     1.52831   16.17870    9.18619
       H    -7.09142   13.28052    7.87758
       O    -6.84128   12.33307    8.05892
      H1    -6.50134   12.39052    8.94169
       H    -4.18933   12.66420   10.00802
       O    -4.91001   12.20301   10.45375
      H1    -5.32685   13.00541   10.83119
       H    -8.04556   15.20423   12.41033
       O    -8.10792   14.83478   11.52177
      H1    -8.87068   15.30552   11.20788
       H    -1.91639   12.93586    9.37742
       O    -2.49470   13.70338    9.62667
      H1    -1.99250   14.04600   10.46456
       H    -4.07903   17.23779    8.55131
       O    -3.44417   17.80564    8.98016
      H1    -3.78505   18.66003    9.17155
       H    -7.43997   17.65372    6.19418
       O    -6.74698   18.14182    6.71782
      H1    -7.28603   18.61236    7.36529
       H     3.57751   16.32646    5.26490
       O     3.96803   16.20629    6.12754
      H1     3.37703   16.82700    6.53682
       H    -7.43518   19.53378    8.97656
       O    -8.09986   18.83757    8.83104
      H1    -7.91326   18.34778    9.64377
       H     2.84447   14.62806   12.84674
       O     3.11500   14.18341   11.96366
      H1     3.52022   14.96554   11.46490
       H    -6.07873   13.04567    4.67703
       O    -6.39872   13.40102    3.87643
      H1    -7.10810   13.93825    4.15222
       H    -8.86694   15.65639    4.30040
       O    -8.72159   14.98681    3.63102
      H1    -8.78156   15.50897    2.79443
       H     1.69190   13.31887   11.40683
       O     0.88675   13.02488   10.92035
      H1     0.70212   12.12092   11.20863
       H     1.57496   18.96918    9.43397
       O     2.44263   18.99813    9.94894
      H1     2.74776   18.06881    9.87143
       H    -1.61223   14.55630   13.15666
       O    -1.43208   14.12427   12.30986
      H1    -0.43530   13.88802   12.27637
       H    -1.03447   16.00474    9.36879
       O    -0.52638   16.74581    8.94664
      H1    -0.33448   16.32310    8.04187
       H    -7.48724   15.13062    7.24251
       O    -8.11351   14.44343    6.94891
      H1    -8.69775   14.32493    7.66696
       H    -6.31447   18.15576   15.02409
       O    -5.49374   18.18393   14.49388
      H1    -4.80209   17.87461   15.15659
       H   -10.63303   16.51099    6.37796
       O   -10.59458   16.37960    5.40400
      H1   -11.54503   16.41808    5.22196
       H     0.55539   16.48897    6.31378
       O     0.89219   17.35888    6.48317
      H1     0.01720   17.76827    6.51310
       H    -0.19055   18.38918    8.90907
       O    -0.00887   19.36365    8.97178
      H1     0.09872   19.72488    8.02652
       H    -3.54597   10.04124    8.26194
       O    -3.83616    9.16274    7.92844
      H1    -4.81204    9.38300    7.69260
       H    -6.73373   16.81385   13.87986
       O    -7.45363   16.18986   13.62296
      H1    -8.25488   16.72965   13.91922
       H    -2.35840   18.21636    7.63752
       O    -2.08165   18.44681    6.73122
      H1    -2.68467   17.94036    6.19785
       H    -5.22374   17.51149    0.38921
       O    -4.96753   17.36441    1.29595
      H1    -5.17714   16.38739    1.40092
       H    -0.63180   18.99008   15.39935
       O    -0.94287   18.43098   14.64019
      H1    -1.35524   19.22688   14.16953
       H     1.35765   19.32983    3.35949
       O     0.53039   19.29379    3.84975
      H1     0.34889   18.33115    3.78824
       H    -7.01444   17.17629   12.01292
       O    -6.55903   17.75717   11.38864
      H1    -5.60286   17.74929   11.68429
       H    -3.23904   11.52066    5.90153
       O    -2.24056   11.57291    5.83202
      H1    -2.27381   10.66808    5.38481
       H     0.20428   15.24534    3.05781
       O     0.36851   14.31617    2.80094
      H1     1.29557   14.19705    2.68198
       H    -2.66835   17.54955   17.03278
       O    -3.32490   17.63601   16.33346
      H1    -2.76012   18.03364   15.63101
       H    -0.69294   16.85816    2.29649
       O    -0.69086   16.75227    3.24600
      H1    -1.63543   17.02701    3.54059
       H    -6.84781   17.45433    2.62152
       O    -7.21843   17.97412    3.31245
      H1    -8.16939   17.95065    3.20677

