180
frame 11 | Written by MDAnalysis XYZWriter (release 2.4.3)
       H     5.39130   -8.19908    9.43850
       O     6.09573   -8.31094   10.08242
      H1     6.58319   -9.07461    9.66498
       H     7.94439  -17.46030   14.16937
       O     7.79865  -17.08068   13.29660
      H1     6.86646  -16.98814   13.17776
       H     7.72349  -17.75112   16.50777
       O     8.39491  -17.65614   15.78715
      H1     8.46895  -16.67273   15.71167
       H     9.19192  -12.91538   13.07083
       O     9.89097  -13.44372   12.66694
      H1     9.94901  -14.23861   13.20231
       H     7.52281  -11.38014   10.39738
       O     7.45342  -10.80715    9.54880
      H1     8.41767  -10.56840    9.44088
       H     7.63200   -8.30033   19.78767
       O     7.66034   -9.15965   19.34923
      H1     7.49614   -9.00787   18.40597
       H     8.50327  -14.67845   17.54597
       O     8.85901  -14.74254   18.41114
      H1     9.57838  -14.13617   18.34624
       H    12.82655  -14.44368   15.03950
       O    12.01838  -14.16586   15.47593
      H1    11.24257  -14.48108   14.91812
       H     1.05380  -11.39450   10.30557
       O     0.84670  -12.26025   10.72991
      H1     0.57347  -12.88830   10.04293
       H     4.85781  -15.18084   19.31648
       O     5.78554  -15.25753   19.60876
      H1     6.20053  -14.43092   19.51568
       H     2.28511   -6.14621   14.47129
       O     3.05591   -6.10386   15.03461
      H1     3.78360   -6.15079   14.37621
       H     4.28998  -13.88132   11.28667
       O     4.86451  -14.64191   11.33635
      H1     4.64033  -15.12254   10.54707
       H     8.88726  -10.15388   14.06572
       O     9.20900   -9.31385   13.71204
      H1     9.61457   -9.57963   12.88968
       H    11.33697   -6.99636   14.60931
       O    11.73120   -7.86001   14.51183
      H1    11.00629   -8.50738   14.32100
       H    11.06790  -10.66343   15.92527
       O    10.30820  -10.58020   16.54516
      H1    10.26989  -11.32646   17.17249
       H     0.96936   -7.56377   12.34184
       O     1.25283   -6.74223   12.81405
      H1     1.60069   -6.23787   12.08585
       H    11.21660   -9.69525   17.67858
       O    11.61382   -9.05995   18.27556
      H1    11.19786   -9.22354   19.13466
       H     5.57103   -4.86366   15.29507
       O     5.83786   -3.93672   15.18781
      H1     6.77425   -3.96391   14.74252
       H     9.98989  -11.79371   19.52693
       O    10.21339  -12.17196   18.68268
      H1    11.07470  -12.49362   18.84448
       H     6.21555  -11.81237    8.81301
       O     5.52807  -12.51868    8.80410
      H1     5.84664  -13.34110    9.18409
       H    -0.32709   -9.75423   12.44551
       O    -0.02731   -9.00064   11.89679
      H1    -0.75194   -8.59363   11.49253
       H     8.85767  -16.12061   11.07287
       O     9.16033  -15.35106   10.56784
      H1     9.12932  -14.55621   11.19297
       H    -1.17102  -11.45212   13.70244
       O    -1.07835  -10.55530   13.95199
      H1    -0.37030  -10.54935   14.62134
       H     6.76253   -6.59757    9.96691
       O     7.07661   -5.69476    9.79475
      H1     7.58933   -5.82036    8.99055
       H     1.21406  -11.19931   15.99885
       O     0.56874  -10.46948   16.15478
      H1     0.51665  -10.43951   17.09809
       H    -1.99814  -11.99507   10.27589
       O    -1.70735  -11.76823   11.14868
      H1    -0.79859  -12.08994   11.19589
       H     5.78876  -11.55187   19.79216
       O     6.06046  -11.67120   18.82846
      H1     6.60472  -10.81653   18.71319
       H    11.47822  -12.55052   12.73501
       O    12.11742  -11.88777   12.46301
      H1    12.22830  -12.04933   11.51067
       H     5.27758  -11.22708   15.11893
       O     5.40912  -11.23667   14.15195
      H1     4.86150  -10.52803   13.90975
       H     8.64263  -15.72492   14.14029
       O     9.00540  -15.23347   14.90999
      H1     8.28701  -14.54223   15.07174
       H    10.96875  -10.48760   11.99899
       O    10.37522  -10.02497   11.45421
      H1    10.80637   -9.15954   11.44130
       H     1.38274   -9.47195   11.02217
       O     2.00454   -9.85914   10.27779
      H1     2.91740   -9.63965   10.59135
       H     3.92166  -10.37566   16.77449
       O     4.23548  -11.30501   16.74098
      H1     4.85066  -11.40402   17.53397
       H     6.37576  -11.79513   12.25100
       O     6.99431  -12.42772   11.85452
      H1     6.47876  -13.19619   11.61082
       H     2.75654   -6.46529   18.40439
       O     2.12506   -7.10836   18.64810
      H1     1.41592   -6.50743   18.90995
       H     2.64745  -17.36621   11.31091
       O     2.58559  -16.70409   11.97626
      H1     2.74864  -15.84473   11.54286
       H     4.47829   -8.40718   19.16031
       O     4.67195   -8.39964   18.22097
      H1     3.84664   -8.12412   17.75188
       H     2.38216  -14.92751   19.32059
       O     3.18587  -14.56813   18.94001
      H1     2.82084  -14.06741   18.21831
       H     1.66461   -8.81822   18.76345
       O     1.42382   -9.73771   18.77606
      H1     2.19141  -10.27258   19.12357
       H     8.44059   -5.41176   14.31810
       O     8.37612   -4.54392   13.91236
      H1     8.87163   -3.97835   14.55908
       H     6.27024  -16.85044   18.58133
       O     6.39290  -17.18168   17.68978
      H1     5.64670  -16.74598   17.25713
       H     4.39737   -8.34252    7.61496
       O     3.83363   -8.47432    8.39523
      H1     3.24043   -7.68414    8.32860
       H     5.05050   -6.76712   12.20462
       O     4.88275   -7.16702   13.06376
      H1     4.44928   -8.03121   12.88998
       H     5.17941   -9.44541   11.32883
       O     4.48775   -9.69922   11.99295
      H1     4.10602  -10.53266   11.59430
       H     1.39632  -13.86896   14.07173
       O     0.74903  -13.88116   14.76927
      H1     0.68429  -14.85632   14.97000
       H     3.61699  -11.60383    6.61406
       O     2.90392  -11.18801    7.18260
      H1     3.32749  -10.56695    7.77429
       H     2.64092  -17.66660   17.02561
       O     2.35203  -16.86526   16.62193
      H1     1.72429  -17.09274   15.93018
       H     4.22058  -13.04994   13.86086
       O     3.80391  -13.92404   13.71623
      H1     4.30413  -14.38411   13.05211
       H     5.96256   -8.80662   17.14414
       O     6.73557   -9.06625   16.65299
      H1     6.92908   -8.23145   16.16263
       H     6.75504  -13.06893   17.17080
       O     6.77910  -13.86731   16.64600
      H1     5.95432  -14.38996   16.75512
       H     8.90988  -11.46854   15.52067
       O     8.38638  -11.83202   14.81907
      H1     7.51570  -11.46923   14.89256
       H     6.98781  -15.76423    8.16947
       O     7.11547  -14.95554    8.76671
      H1     7.78737  -15.23193    9.41522
       H     3.79537  -15.87478   16.12561
       O     4.58095  -15.69575   15.62865
      H1     4.38906  -14.96551   15.01971
       H     6.78217   -7.12941   13.74515
       O     7.55377   -7.24820   14.30467
      H1     8.07829   -7.91208   13.86771
       H     2.79241  -12.20055   10.84685
       O     3.74098  -12.12315   10.90816
      H1     4.00957  -12.21559    9.99693
       H     7.41018   -6.19223   17.03769
       O     6.84068   -5.54301   17.47201
      H1     7.36423   -4.72151   17.42303
       H     4.59290  -16.84267   14.40977
       O     4.97907  -17.44025   13.67429
      H1     4.20527  -17.47738   13.14494
       H     1.96082   -9.14535   16.24035
       O     2.85091   -8.74014   16.09798
      H1     2.79557   -7.80296   15.96445
       H     1.72887  -13.09812   16.21367
       O     1.95079  -12.62942   17.01037
      H1     2.81401  -12.20203   16.84624
       H    10.02237   -9.99615    9.30715
       O     9.70299   -9.79400    8.43018
      H1    10.24740  -10.39215    7.87515

