180
frame 5 | Written by MDAnalysis XYZWriter (release 2.4.3)
       H     6.31943   -1.26422    7.06201
       O     5.84422   -2.13139    7.02836
      H1     5.74780   -2.28034    7.96345
       H     0.77477   -1.13264    6.07495
       O     0.46741   -0.88217    5.20292
      H1    -0.44283   -1.17507    5.21730
       H     5.18111   -5.01551   -2.89579
       O     5.00175   -5.82789   -3.36856
      H1     4.27558   -5.56393   -3.92529
       H    -0.43899   -3.05479    6.76826
       O    -0.08096   -3.90030    6.69704
      H1     0.82694   -3.84962    7.06165
       H    -0.92003   -0.22170   -0.25621
       O    -1.46742   -0.82353    0.31937
      H1    -2.22508   -0.94827   -0.33789
       H     5.16545   -2.87330    3.06589
       O     4.65367   -3.58736    2.57577
      H1     4.79713   -3.25228    1.67166
       H     1.58104    1.44014    7.30676
       O     1.54105    1.40554    8.28259
      H1     1.60052    2.33797    8.56584
       H     6.55470    2.65223    4.32606
       O     6.73418    1.94722    3.67853
      H1     7.56468    1.58470    4.06073
       H     0.01054   -6.28012   -1.06949
       O     0.64811   -5.52007   -1.28573
      H1     0.03330   -4.78548   -1.48656
       H     4.90679    2.59702    7.78119
       O     4.67111    3.52626    7.90664
      H1     3.74534    3.62274    8.18701
       H     0.02052   -0.58924    7.75870
       O    -0.90507   -0.74589    7.58961
      H1    -1.35269   -0.52593    8.40139
       H     1.07346    0.66395    5.44368
       O     1.47051    1.52857    5.65424
      H1     2.43106    1.33583    5.59124
       H     1.91648   -4.92184   -2.54135
       O     2.54072   -4.33526   -3.04285
      H1     3.13221   -4.06286   -2.28103
       H     3.45546   -3.01488    3.91919
       O     2.79532   -2.33851    4.02650
      H1     2.01913   -2.90454    4.22630
       H     3.64369   -2.67771   -0.87888
       O     3.95034   -3.66697   -0.95365
      H1     4.93220   -3.58411   -0.97389
       H     8.53818   -4.17037    3.67516
       O     7.62861   -4.17306    4.05311
      H1     7.12208   -4.45526    3.35041
       H     6.32519    5.39200    0.63262
       O     6.42742    4.97450    1.55004
      H1     5.48472    4.73067    1.80507
       H     5.83146   -1.76894    5.14083
       O     6.28167   -1.68398    4.25942
      H1     7.00512   -2.35008    4.36486
       H     7.06130   -6.36958   -1.07776
       O     7.09863   -5.70553   -0.42298
      H1     6.38168   -5.90679    0.21270
       H     2.92321   -8.43835    1.19737
       O     3.32180   -8.20112    2.08904
      H1     2.55226   -7.80254    2.54315
       H     4.40226   -6.59634    1.82713
       O     5.16137   -6.06100    1.58389
      H1     5.10431   -5.25873    2.13905
       H     6.14035    2.15547   -1.38231
       O     6.18771    3.09902   -1.48771
      H1     6.53210    3.10178   -2.40478
       H     4.10448   -6.53252   -1.74831
       O     3.81288   -7.13563   -1.03987
      H1     4.02387   -6.66624   -0.26178
       H     9.61323    0.76074   -0.49113
       O     8.66322    1.11307   -0.58285
      H1     8.82556    2.09092   -0.47288
       H     2.85063    1.22089   -3.20425
       O     3.32110    1.21525   -2.41741
      H1     3.07658    1.98955   -1.88585
       H    -2.45011   -1.53541    3.66125
       O    -1.98084   -2.22829    4.17466
      H1    -1.79863   -2.94012    3.53375
       H     3.24329    4.24972    2.28613
       O     3.87891    4.95392    2.40918
      H1     3.81369    4.96371    3.39342
       H     8.67031    3.69015    0.85656
       O     8.26320    3.71265    0.00467
      H1     7.30021    3.48404    0.24070
       H     5.25944    1.23596    6.26973
       O     5.76580    1.00856    7.11622
      H1     6.56965    1.53658    7.01597
       H     1.32933    2.69887    4.16362
       O     1.30999    3.46792    3.58954
      H1     1.66502    3.13594    2.73531
       H     3.95551   -4.92518    7.26031
       O     3.00368   -4.94146    7.19556
      H1     2.88586   -5.91640    7.18750
       H     0.02999   -0.12970    1.57848
       O     0.86354   -0.10275    2.09736
      H1     0.49004   -0.53514    2.85822
       H    -0.43121   -3.78597    1.98460
       O    -1.03477   -4.33839    2.54529
      H1    -1.74201   -4.39316    1.89656
       H     2.55701    2.94417    0.22799
       O     2.00392    2.93429    1.01069
      H1     1.23454    2.43413    0.64647
       H     1.52344   -4.21133   10.03081
       O     2.38008   -3.77354    9.82762
      H1     2.62965   -4.22751    9.00935
       H    -2.49645    0.78701    3.94847
       O    -2.87622    0.27452    3.26191
      H1    -3.77443    0.35851    3.43863
       H     6.56004   -1.47723    0.57808
       O     6.50801   -2.42473    0.68804
      H1     7.11561   -2.70432    0.00158
       H     6.01359   -3.14853   -3.98207
       O     6.24912   -3.20073   -3.07714
      H1     7.18472   -3.57311   -3.08260
       H     9.24986   -2.01733    6.99639
       O     8.81510   -2.87705    7.14390
      H1     8.00775   -2.72270    6.57155
       H     3.20318   -2.13304    7.07538
       O     2.33051   -1.74408    6.92130
      H1     2.25957   -1.81767    5.89639
       H     1.34124   -3.42804    1.18613
       O     0.60482   -2.80541    1.04078
      H1     0.83174   -1.94395    1.48866
       H     5.42008   -5.97383    4.77034
       O     5.80574   -6.50534    5.46318
      H1     5.29600   -7.31108    5.59970
       H     1.61099   -2.59485   -3.25768
       O     0.76876   -2.16435   -3.40635
      H1     0.62562   -2.28494   -4.36559
       H     1.82469   -5.37968    0.25954
       O     2.16469   -5.12528    1.13033
      H1     3.06401   -4.78389    0.90573
       H     1.38037   -7.24139    4.55879
       O     2.21906   -6.85671    4.51366
      H1     2.17487   -5.89117    4.64953
       H     3.30439   -1.38685    2.61717
       O     3.44895   -0.63682    2.02157
      H1     2.51504   -0.24998    2.06643
       H    -3.49732   -3.95528    6.47453
       O    -3.21114   -3.00944    6.63078
      H1    -2.79772   -2.89975    5.71035
       H     9.91036    3.91078    3.33723
       O     9.28579    3.24683    2.84986
      H1     8.47208    3.25179    3.30846
       H     3.38030    4.49316   -1.62658
       O     3.44612    3.74005   -1.01727
      H1     4.40453    3.46677   -1.11047
       H     3.47742   -0.70948   -0.01000
       O     2.95119   -0.98577   -0.89157
      H1     3.39702   -0.34662   -1.48570
       H     0.25822   -3.92496    4.92294
       O     0.92657   -4.22232    4.30814
      H1     0.49295   -4.42358    3.54694
       H     7.64938   -0.70933    4.14586
       O     8.46069   -0.16733    3.99629
      H1     8.58133   -0.11555    3.06723
       H     6.39434    1.11591    1.68637
       O     6.54923    0.55723    0.91662
      H1     7.45735    0.72176    0.59528
       H     4.62284    3.77351    5.98015
       O     5.07412    3.86126    5.09782
      H1     5.92691    4.33616    5.38156
       H    -3.10786    0.99054    1.11085
       O    -3.73387    0.99246    0.39316
      H1    -4.21934    1.82317    0.44471
       H     0.66341    0.92614   -1.59433
       O     0.84735    0.59213   -0.68235
      H1     1.57507   -0.01341   -0.83526
       H    -1.17967   -7.53684    2.46024
       O    -1.66336   -6.99691    3.11190
      H1    -1.00641   -6.27721    3.29663
       H     6.95273   -7.32875    4.22734
       O     7.03266   -7.88786    3.47148
      H1     6.99500   -7.19491    2.78419
       H     5.03986    1.20267    4.12588
       O     4.33290    0.76813    4.61309
      H1     3.86148    0.45954    3.79917
       H    -0.24148   -2.97236   -2.11229
       O    -0.88877   -3.30670   -1.46704
      H1    -0.95920   -2.56672   -0.81661

