180
frame 12 | Written by MDAnalysis XYZWriter (release 2.4.3)
       H    -9.14100    9.73159  -11.17603
       O   -10.00877    9.36340  -11.54373
      H1   -10.21533    9.88794  -12.31211
       H   -14.30077    9.00079  -11.21254
       O   -14.54095    8.51349  -10.44259
      H1   -14.34911    7.57195  -10.69037
       H   -10.36584    6.91998  -10.82596
       O   -10.56743    6.00037  -11.19334
      H1   -11.01632    6.34782  -11.99445
       H   -13.15285    5.46787  -10.29720
       O   -13.90641    5.89741  -10.70372
      H1   -14.59160    5.26751  -10.65944
       H   -12.72525    9.99801  -11.74738
       O   -13.25448    9.64333  -12.46892
      H1   -12.89333    8.79206  -12.65195
       H    -9.97524   13.49184  -15.64930
       O   -10.75841   13.11847  -16.06425
      H1   -11.50924   13.22763  -15.44019
       H   -15.08910   15.24052  -12.52624
       O   -14.38116   15.66265  -11.92574
      H1   -14.93611   16.34763  -11.49014
       H   -13.17046   12.46080  -10.67397
       O   -12.24060   12.42106  -10.40488
      H1   -11.83375   12.98185  -11.09362
       H   -16.26105   18.07397   -9.96529
       O   -15.56303   17.38288   -9.89109
      H1   -15.96421   16.66680   -9.37876
       H   -13.81827   18.03740  -10.67038
       O   -12.97906   18.37832  -10.91596
      H1   -13.19612   18.89003  -11.68670
       H   -10.54448    8.70048  -15.05772
       O   -10.00049    8.05399  -14.51242
      H1    -9.52462    8.52463  -13.79298
       H    -7.08347    9.38999  -11.26477
       O    -7.61770   10.05319  -10.75529
      H1    -7.16392   10.30072   -9.89448
       H   -15.10903   14.35073   -5.30775
       O   -15.06844   15.29116   -5.79314
      H1   -15.94021   15.56523   -5.41102
       H    -9.88045    9.96868   -7.58110
       O    -9.49673   10.07314   -6.66602
      H1    -9.39337    9.13947   -6.46308
       H   -13.94471    8.06863   -7.28629
       O   -14.44450    7.35501   -7.76460
      H1   -14.69850    7.67525   -8.63240
       H    -7.23857   11.45184  -11.83808
       O    -7.16248   12.11654  -12.49770
      H1    -6.39791   12.59994  -12.16832
       H   -11.22088   10.72522   -5.86458
       O   -12.14020   11.04858   -5.78150
      H1   -12.52708   10.80190   -6.64740
       H    -8.92871   10.92487  -14.12774
       O    -9.87178   11.08169  -13.95310
      H1    -9.95458   12.01852  -14.15284
       H   -11.15037    9.37616  -17.21925
       O   -11.49629    9.53018  -16.28608
      H1   -11.04678   10.28755  -15.94910
       H   -15.49461   11.77068  -15.14157
       O   -16.37594   11.99164  -14.82308
      H1   -16.45586   11.24218  -14.22169
       H   -15.20410   15.51608  -16.45269
       O   -15.02645   14.62458  -16.76024
      H1   -14.47818   14.27043  -16.05797
       H    -9.13874   15.17497   -7.47273
       O    -8.96207   14.33977   -6.99169
      H1    -9.79929   14.30676   -6.42657
       H   -13.90575   10.60824   -5.23611
       O   -14.89116   10.54543   -5.40170
      H1   -14.97946   10.50831   -6.41957
       H   -11.46066   10.81520   -9.64303
       O   -11.07939   10.01924   -9.22824
      H1   -10.48663    9.60864   -9.90275
       H    -8.67601   14.10833  -11.64195
       O    -9.31358   13.37375  -11.59666
      H1    -8.78511   12.63703  -11.93298
       H    -9.01751   17.27952   -8.57369
       O    -8.86146   16.42541   -8.98563
      H1    -9.72653   16.27373   -9.37699
       H    -9.38831   14.01123  -13.30830
       O    -9.04321   14.33283  -14.14264
      H1    -8.11294   14.22939  -14.17745
       H   -14.25506   17.05924  -15.45551
       O   -13.44700   16.84459  -14.97529
      H1   -12.76223   16.73289  -15.59198
       H   -10.82002   15.82332  -16.24333
       O   -11.13582   16.54038  -16.76881
      H1   -11.27362   16.11548  -17.61291
       H   -13.77985   15.47995   -4.54881
       O   -13.15580   15.33935   -3.83947
      H1   -12.59188   16.14232   -3.84516
       H    -6.23784   13.92475   -8.11098
       O    -5.68635   14.18691   -8.91126
      H1    -4.81544   13.82718   -8.59697
       H   -16.00164    8.46788  -12.85608
       O   -16.05342    7.62050  -13.30889
      H1   -16.89574    7.28429  -13.03710
       H    -7.42679   14.23216   -6.28251
       O    -6.46579   14.00225   -6.18747
      H1    -6.41727   13.57080   -5.28391
       H    -7.40901   15.80047  -10.55447
       O    -7.40783   15.42829  -11.48154
      H1    -7.48397   16.24712  -12.00431
       H   -11.47213   17.51738   -7.61103
       O   -10.90182   18.25929   -7.31971
      H1   -11.43697   18.38351   -6.48396
       H   -11.59093   15.38882  -11.63927
       O   -12.03537   14.78259  -12.24447
      H1   -12.94686   15.02130  -11.95714
       H   -13.30116   12.30195  -14.56835
       O   -13.20540   13.32020  -14.83202
      H1   -12.96636   13.60477  -13.94086
       H   -13.66425   10.19807  -14.08609
       O   -13.82893   10.49685  -15.05172
      H1   -13.11620   10.00912  -15.47649
       H   -11.83248   16.26686   -9.72972
       O   -11.15978   16.46956  -10.36756
      H1   -11.66881   17.05435  -11.00961
       H    -9.07454   12.99315   -9.97901
       O    -8.64028   12.61827   -9.13397
      H1    -9.03100   13.21593   -8.47504
       H   -11.30040    7.50537  -13.64619
       O   -12.09113    7.29789  -13.10497
      H1   -12.53265    6.48899  -13.45711
       H    -9.17328   11.00043   -5.13563
       O    -9.37898   11.73642   -4.52773
      H1    -9.71952   11.19127   -3.73395
       H    -6.88867   11.30330  -14.31647
       O    -7.21174   10.55182  -14.81775
      H1    -7.37723   10.88114  -15.71504
       H   -11.34879    7.81975   -8.60410
       O   -11.83630    7.17000   -9.09103
      H1   -12.68866    7.57397   -9.25271
       H   -11.15110   16.79252  -13.50720
       O   -10.35147   17.31034  -13.51888
      H1   -10.73442   18.15505  -13.86580
       H   -16.22461   12.25243   -8.03076
       O   -15.61740   12.87615   -8.55098
      H1   -15.01960   13.16683   -7.89343
       H   -13.76038   11.93876   -2.77657
       O   -13.15965   11.16445   -2.97382
      H1   -12.64044   11.45420   -3.76432
       H   -12.58716   13.80738   -7.00106
       O   -13.04203   13.79437   -7.86605
      H1   -12.50577   13.12787   -8.37349
       H   -16.52719   14.47798   -8.21315
       O   -16.52113   15.44629   -8.24785
      H1   -16.21907   15.61535   -7.32650
       H   -18.39219   11.23773   -8.76514
       O   -17.68882   10.76702   -8.23016
      H1   -17.87736   11.17859   -7.32191
       H    -7.38621   17.98745  -12.90328
       O    -7.73067   17.42041  -13.56190
      H1    -8.65592   17.44407  -13.46594
       H   -15.25889   12.81436  -10.29314
       O   -14.94599   12.66126  -11.21502
      H1   -15.31706   13.38840  -11.70445
       H   -16.88394   14.92680  -13.50595
       O   -16.39169   14.17053  -13.15598
      H1   -16.29249   13.48219  -13.89321
       H   -14.67388   11.03447   -8.94899
       O   -14.04861   10.39872   -8.55227
      H1   -13.77857    9.74625   -9.24398
       H   -13.58813   15.74478   -8.68940
       O   -13.30847   16.49010   -8.12429
      H1   -13.81858   16.42086   -7.30461
       H   -15.88309   11.31566  -11.63204
       O   -16.17990   10.53532  -12.18926
      H1   -17.08870   10.37287  -11.83396
       H   -19.25768   12.65243  -12.66785
       O   -18.92467   13.34005  -12.08830
      H1   -18.12263   13.62560  -12.60388
       H   -16.53944    8.28525  -10.17930
       O   -17.41958    8.64840   -9.91882
      H1   -17.20299    9.40875   -9.38554
       H    -7.02146    9.74407   -7.87683
       O    -6.73059   10.58122   -8.39919
      H1    -7.51157   11.13103   -8.54733
       H   -11.93532   14.12043   -4.86883
       O   -11.41279   13.85720   -5.68690
      H1   -11.32259   12.89787   -5.59517

