180
frame 5 | Written by MDAnalysis XYZWriter (release 2.4.3)
       H     6.31943   -1.26422    7.06201
       O     5.84422   -2.13139    7.02836
      H1     5.74780   -2.28034    7.96345
       H     0.77477   -1.13264    6.07495
       O     0.46741   -0.88217    5.20292
      H1    -0.44283   -1.17507    5.21730
       H    -3.30092   -3.83665    0.18041
       O    -3.32064   -4.73462    0.46931
      H1    -3.82973   -4.75584    1.27425
       H    -0.43899   -3.05479    6.76826
       O    -0.08096   -3.90030    6.69704
      H1     0.82694   -3.84962    7.06165
       H    -0.92003   -0.22170   -0.25621
       O    -1.46742   -0.82353    0.31937
      H1    -2.22508   -0.94827   -0.33789
       H    -3.60285   -5.95172    5.46021
       O    -4.06937   -5.07701    5.37445
      H1    -4.93287   -5.23095    5.82663
       H     5.16545   -2.87330    3.06589
       O     4.65367   -3.58736    2.57577
      H1     4.79713   -3.25228    1.67166
       H    -2.59573   -2.56515    9.27656
       O    -2.84833   -3.51006    9.31205
      H1    -3.05965   -3.65550    8.36543
       H     1.58104    1.44014    7.30676
       O     1.54105    1.40554    8.28259
      H1     1.60052    2.33797    8.56584
       H    -3.00244  -10.58432    6.27902
       O    -3.57114  -10.26108    5.55727
      H1    -3.33708   -9.32531    5.54070
       H     0.01054   -6.28012   -1.06949
       O     0.64811   -5.52007   -1.28573
      H1     0.03330   -4.78548   -1.48656
       H    -0.22062   -8.96785    5.53918
       O    -0.07903   -8.86486    4.56303
      H1    -0.84841   -8.36150    4.19178
       H    -1.25359   -3.96641   10.10355
       O    -0.54054   -4.20909   10.74195
      H1    -0.16449   -5.06134   10.49620
       H     0.02052   -0.58924    7.75870
       O    -0.90507   -0.74589    7.58961
      H1    -1.35269   -0.52593    8.40139
       H     1.09025    0.88654   10.91675
       O     1.62992    0.13216   10.81686
      H1     1.89112    0.22230    9.85874
       H    -2.82138   -7.39623    4.57850
       O    -2.90718   -7.68146    5.47481
      H1    -2.18613   -7.10188    5.86744
       H     1.07346    0.66395    5.44368
       O     1.47051    1.52857    5.65424
      H1     2.43106    1.33583    5.59124
       H    -1.80971  -11.23728    4.17545
       O    -1.08348  -11.16425    3.56477
      H1    -0.70927  -10.30198    3.80309
       H    -1.11039   -5.51342    7.41096
       O    -1.24571   -6.44674    7.39067
      H1    -1.97241   -6.62092    8.06958
       H     3.45546   -3.01488    3.91919
       O     2.79532   -2.33851    4.02650
      H1     2.01913   -2.90454    4.22630
       H     3.64369   -2.67771   -0.87888
       O     3.95034   -3.66697   -0.95365
      H1     4.93220   -3.58411   -0.97389
       H     5.36102   -9.57328    6.53631
       O     4.81907   -9.02264    5.93858
      H1     4.81761   -9.55149    5.11419
       H     8.53818   -4.17037    3.67516
       O     7.62861   -4.17306    4.05311
      H1     7.12208   -4.45526    3.35041
       H     2.80618   -8.00055    7.84899
       O     2.24817   -7.69175    7.10737
      H1     2.67147   -7.74254    6.24203
       H    -5.45295   -1.54749    2.80528
       O    -5.42849   -1.83110    1.83838
      H1    -6.33696   -2.07724    1.65866
       H     5.83146   -1.76894    5.14083
       O     6.28167   -1.68398    4.25942
      H1     7.00512   -2.35008    4.36486
       H     2.92321   -8.43835    1.19737
       O     3.32180   -8.20112    2.08904
      H1     2.55226   -7.80254    2.54315
       H     4.40226   -6.59634    1.82713
       O     5.16137   -6.06100    1.58389
      H1     5.10431   -5.25873    2.13905
       H    -5.08096   -3.63593    2.50558
       O    -4.83782   -4.53540    2.69594
      H1    -4.59640   -4.54044    3.63483
       H    -2.48831   -7.17904   -1.22956
       O    -1.84075   -7.03222   -0.59353
      H1    -2.23440   -6.29831   -0.11479
       H     0.25754   -9.78916    7.57178
       O    -0.39437   -9.12178    7.30379
      H1     0.21130   -8.34961    7.02249
       H     4.10448   -6.53252   -1.74831
       O     3.81288   -7.13563   -1.03987
      H1     4.02387   -6.66624   -0.26178
       H    -2.45011   -1.53541    3.66125
       O    -1.98084   -2.22829    4.17466
      H1    -1.79863   -2.94012    3.53375
       H     1.32933    2.69887    4.16362
       O     1.30999    3.46792    3.58954
      H1     1.66502    3.13594    2.73531
       H    -4.78565   -1.10590    7.32239
       O    -5.61892   -0.65121    7.17583
      H1    -5.39560    0.26158    7.13602
       H     3.95551   -4.92518    7.26031
       O     3.00368   -4.94146    7.19556
      H1     2.88586   -5.91640    7.18750
       H     0.02999   -0.12970    1.57848
       O     0.86354   -0.10275    2.09736
      H1     0.49004   -0.53514    2.85822
       H    -0.43121   -3.78597    1.98460
       O    -1.03477   -4.33839    2.54529
      H1    -1.74201   -4.39316    1.89656
       H     1.52344   -4.21133   10.03081
       O     2.38008   -3.77354    9.82762
      H1     2.62965   -4.22751    9.00935
       H    -2.49645    0.78701    3.94847
       O    -2.87622    0.27452    3.26191
      H1    -3.77443    0.35851    3.43863
       H     0.47485   -7.22394    9.41899
       O     0.56145   -6.26363    9.36340
      H1     0.05776   -6.22499    8.50017
       H     3.20318   -2.13304    7.07538
       O     2.33051   -1.74408    6.92130
      H1     2.25957   -1.81767    5.89639
       H     1.34124   -3.42804    1.18613
       O     0.60482   -2.80541    1.04078
      H1     0.83174   -1.94395    1.48866
       H     5.42008   -5.97383    4.77034
       O     5.80574   -6.50534    5.46318
      H1     5.29600   -7.31108    5.59970
       H    -5.61152   -6.00708    7.53909
       O    -6.25966   -5.61509    6.96510
      H1    -6.60135   -4.85905    7.52598
       H     1.82469   -5.37968    0.25954
       O     2.16469   -5.12528    1.13033
      H1     3.06401   -4.78389    0.90573
       H     1.38037   -7.24139    4.55879
       O     2.21906   -6.85671    4.51366
      H1     2.17487   -5.89117    4.64953
       H    -2.96136    0.23081    9.57837
       O    -2.25090   -0.42177    9.77086
      H1    -1.96195    0.06469   10.56621
       H    -7.12845   -1.57966    4.43179
       O    -6.17454   -1.85516    4.50618
      H1    -5.99951   -1.56376    5.41574
       H     3.30439   -1.38685    2.61717
       O     3.44895   -0.63682    2.02157
      H1     2.51504   -0.24998    2.06643
       H    -3.49732   -3.95528    6.47453
       O    -3.21114   -3.00944    6.63078
      H1    -2.79772   -2.89975    5.71035
       H     3.47742   -0.70948   -0.01000
       O     2.95119   -0.98577   -0.89157
      H1     3.39702   -0.34662   -1.48570
       H     0.25822   -3.92496    4.92294
       O     0.92657   -4.22232    4.30814
      H1     0.49295   -4.42358    3.54694
       H    -4.06641   -6.98792    9.04566
       O    -4.07023   -6.20335    8.45139
      H1    -4.36282   -5.55973    9.14030
       H    -1.17967   -7.53684    2.46024
       O    -1.66336   -6.99691    3.11190
      H1    -1.00641   -6.27721    3.29663
       H     3.82809   -5.10672   11.62169
       O     4.61226   -4.85706   11.05383
      H1     4.03783   -4.56874   10.29035
       H     5.03986    1.20267    4.12588
       O     4.33290    0.76813    4.61309
      H1     3.86148    0.45954    3.79917
       H    -1.00937   -6.93144   10.25539
       O    -1.75068   -7.20183   10.83281
      H1    -1.34227   -7.26557   11.74054
       H    -0.51594   -9.46215    1.33042
       O    -0.35179   -8.51078    1.26258
      H1    -0.86487   -8.32556    0.42692
       H    -0.24148   -2.97236   -2.11229
       O    -0.88877   -3.30670   -1.46704
      H1    -0.95920   -2.56672   -0.81661

