180
frame 0 | Written by MDAnalysis XYZWriter (release 2.4.3)
       H     4.97867    7.54394  -14.16748
       O     4.71257    7.45387  -13.25545
      H1     3.94329    8.05423  -13.27369
       H    10.28511   12.40752  -17.70441
       O    10.39241   12.66493  -16.72243
      H1    11.32111   12.44627  -16.62421
       H     7.40353   10.38724   -9.80444
       O     7.07043   11.17761  -10.19990
      H1     6.97289   11.73748   -9.39929
       H     3.63130   16.84373  -17.15103
       O     3.80256   17.55961  -17.81110
      H1     3.09932   17.33496  -18.49708
       H     9.75457   13.19458   -8.82031
       O     9.95232   13.57419   -7.96187
      H1    10.67843   14.23743   -8.17978
       H     3.83037   10.66813  -12.05102
       O     4.05058   11.01969  -12.92690
      H1     4.99683   11.09888  -12.94223
       H     5.51282   11.91629  -18.58037
       O     5.87487   11.21120  -19.19027
      H1     5.32959   11.28442  -19.99310
       H     6.86218    9.13277  -12.76869
       O     6.75129    9.96065  -13.29260
      H1     7.64749    9.93954  -13.59991
       H    15.61395   17.09920  -13.49214
       O    15.10753   17.22459  -12.68359
      H1    14.20063   16.79609  -12.89323
       H     7.78238   16.20664  -14.83241
       O     8.69843   16.35725  -14.54119
      H1     8.87216   17.32229  -14.83668
       H     9.67229   15.45574  -16.07369
       O    10.30790   15.39939  -16.80918
      H1    10.47983   14.44428  -16.92781
       H    11.81157    5.00449  -17.33936
       O    10.84367    5.27150  -17.17923
      H1    10.38588    4.37804  -17.12552
       H    16.17892   11.89131  -14.03822
       O    16.41896   12.68546  -13.46965
      H1    15.81228   12.71773  -12.71201
       H    11.43299    9.06913  -13.35355
       O    10.80005    8.38783  -13.51491
      H1    10.95778    8.05547  -14.40499
       H    18.37577   15.21738  -17.64654
       O    18.40396   16.15483  -17.42590
      H1    17.69078   16.14757  -16.78481
       H     7.97831   16.13239  -19.45999
       O     7.55640   16.46063  -18.61470
      H1     8.24971   16.94190  -18.21610
       H    11.72839   16.13933  -16.21817
       O    12.66905   16.24138  -15.99813
      H1    13.14373   15.52236  -16.41873
       H    10.21378   10.18429  -16.21365
       O    10.78193    9.76583  -16.88604
      H1    10.57936   10.36179  -17.65703
       H    10.99607   15.62421  -12.97623
       O    10.40360   14.90982  -12.66391
      H1     9.58726   15.02332  -13.17486
       H    13.42046    8.07271  -18.80433
       O    13.52562    7.48253  -19.58743
      H1    13.94234    6.72040  -19.18135
       H    16.94953    9.54122  -14.31428
       O    16.28655   10.00997  -14.93268
      H1    16.90772   10.25184  -15.64941
       H     7.45193   12.57769  -15.23501
       O     7.96150   13.38215  -15.32773
      H1     8.65495   13.28790  -16.00414
       H    16.57821   14.12540  -14.44553
       O    16.43883   14.89707  -15.04511
      H1    15.87090   14.52402  -15.77407
       H     9.38837    7.19032  -16.99928
       O     8.78091    7.92830  -16.64246
      H1     9.30783    8.67088  -16.91045
       H    11.14224   15.64881  -10.96419
       O    11.31728   15.70773   -9.98573
      H1    12.18527   16.14116   -9.95844
       H    13.95775    8.67394  -13.61291
       O    13.79595    8.77397  -14.58391
      H1    14.47843    9.46390  -14.73095
       H    14.54237    5.37997  -12.91003
       O    14.03131    6.20554  -12.95048
      H1    13.28065    5.90939  -13.51860
       H    11.54276    5.57527  -15.10152
       O    11.86217    5.24290  -14.24067
      H1    11.06408    5.20617  -13.74449
       H    16.83178    9.22050  -19.52835
       O    17.72830    8.82473  -19.36105
      H1    18.31878    9.59061  -19.29666
       H    14.33454   13.61827  -17.48105
       O    14.65346   14.52398  -17.22465
      H1    15.19043   14.71264  -18.01496
       H     8.69338    7.50901  -11.28520
       O     9.35520    6.86287  -11.02436
      H1    10.20529    7.19801  -11.46327
       H     6.51413    6.50125  -14.90257
       O     6.04707    6.93342  -15.64006
      H1     6.60635    7.59547  -16.06610
       H    12.59577   16.48852  -14.46619
       O    12.44998   16.73058  -13.47774
      H1    11.82274   17.43859  -13.56707
       H    10.07818   19.15546  -15.03224
       O     9.08044   19.13102  -14.94252
      H1     8.73977   19.55672  -15.75058
       H    15.06145   15.51753  -11.56230
       O    14.57479   14.71314  -11.47935
      H1    14.39869   14.80839  -10.49222
       H     4.48260   15.93180  -18.44831
       O     4.27909   15.02161  -18.67705
      H1     4.83019   14.81051  -19.43340
       H    10.42185   16.60708  -17.92747
       O    10.55149   17.32509  -18.56858
      H1    10.46239   16.85140  -19.42902
       H     9.78504    9.84649  -13.89612
       O     9.29766   10.57520  -14.39869
      H1     9.60955   11.37852  -13.86542
       H    13.98414    5.65754  -15.79240
       O    14.62129    6.34773  -16.04121
      H1    14.37003    7.16380  -15.62878
       H     5.78792    8.00631  -11.72076
       O     6.68145    7.99283  -11.34424
      H1     6.48818    8.50708  -10.53367
       H    12.32904    9.09544  -17.09236
       O    13.26114    9.05499  -17.42810
      H1    13.77732    9.05834  -16.60381
       H     5.14235   13.77893  -17.39797
       O     5.37064   12.90214  -16.98549
      H1     4.91573   12.91125  -16.13499
       H    14.16556   12.56231   -9.44264
       O    13.61345   11.89567   -9.83168
      H1    12.89372   12.40089  -10.24483
       H     9.30634   12.96189  -11.24279
       O     9.75685   12.50062  -10.53345
      H1     9.06342   11.89198  -10.22482
       H     8.26727   13.15345  -13.45985
       O     8.12319   13.07167  -12.50002
      H1     7.18136   13.11344  -12.29522
       H     4.58853   15.78359  -15.99499
       O     3.68996   15.71593  -15.58931
      H1     3.88950   15.66581  -14.63171
       H     7.30014   16.86959  -10.86323
       O     7.10284   17.70074  -10.41247
      H1     7.14925   18.22174  -11.24907
       H     4.71992   14.68702  -10.77866
       O     5.57986   14.97594  -11.09705
      H1     5.33650   15.82893  -11.62121
       H    12.12420   11.59308  -12.50277
       O    11.63838   10.79930  -12.22060
      H1    11.20920   11.20043  -11.43539
       H    10.06659   18.03783  -10.80252
       O    10.36919   18.06901  -11.70797
      H1     9.68028   18.60677  -12.08542
       H     4.93834    9.74291  -16.49608
       O     4.32351    9.70446  -17.22787
      H1     4.74657   10.32406  -17.87753
       H    14.50409   17.79167  -18.08833
       O    14.47005   18.08814  -17.17095
      H1    13.84359   17.50484  -16.72571
       H     6.91008   15.94905  -16.94415
       O     6.32264   15.86352  -16.13904
      H1     6.28437   14.89319  -15.99300
       H    13.67666   10.43109  -12.32500
       O    14.63809   10.48971  -12.30047
      H1    14.74677   11.09249  -11.51997
       H     7.65829    7.14544  -17.81594
       O     7.48372    6.31356  -18.33734
      H1     7.72671    6.67786  -19.22948
       H    13.07752   11.14752  -16.56063
       O    13.21816   12.06034  -16.80459
      H1    13.20286   12.03534  -17.79932
       H    11.58954   18.78626  -18.36139
       O    12.10816   19.42237  -17.83727
      H1    13.02332   19.05021  -18.00231
       H     3.61946   13.24504  -12.91379
       O     4.11838   14.02728  -13.10228
      H1     4.77512   14.07176  -12.41875
       H    10.66230    6.17899  -18.71680
       O    10.92972    6.48971  -19.62519
      H1    11.88590    6.77111  -19.47340
       H    13.23840   13.87270  -12.35998
       O    12.67894   13.23300  -12.86925
      H1    11.86017   13.74628  -13.04400

