180
frame 5 | Written by MDAnalysis XYZWriter (release 2.4.3)
       H    -9.83783  -17.46879   14.37772
       O   -10.02709  -17.59360   15.30620
      H1    -9.50153  -18.31997   15.60106
       H    -9.18925  -10.73010   11.67803
       O    -9.75138  -10.35674   10.95278
      H1   -10.10559   -9.65697   11.49325
       H    -8.27668  -10.96917   15.05832
       O    -7.58847  -10.55110   15.64542
      H1    -6.87836  -10.53188   14.98330
       H    -7.77116   -8.34216   11.91751
       O    -7.28038   -7.76358   11.30027
      H1    -7.64266   -8.07236   10.41799
       H    -6.92468   -5.28983   14.66442
       O    -6.37176   -4.79441   14.00439
      H1    -6.50264   -3.82518   14.27502
       H    -6.09891  -12.60903   10.96266
       O    -6.72977  -13.36458   11.06574
      H1    -6.23355  -14.13137   10.80331
       H   -11.35248  -15.97734   18.13757
       O   -11.35730  -16.00954   19.12105
      H1   -12.28866  -15.72458   19.34674
       H   -12.69984  -10.89200   13.51330
       O   -13.28952  -10.23539   13.92808
      H1   -13.96863  -10.89607   14.35702
       H    -5.56065  -14.08933   12.53320
       O    -4.94654  -14.63009   13.00288
      H1    -5.57190  -15.09726   13.63847
       H   -12.68499  -13.22538   17.29104
       O   -12.05518  -13.67011   16.78161
      H1   -11.27792  -13.12535   16.93948
       H    -7.94244   -9.27892   14.30739
       O    -8.26373   -8.59991   13.67803
      H1    -9.18865   -8.77901   13.74954
       H    -5.20474  -10.90549   13.35791
       O    -5.44968  -10.24137   14.05018
      H1    -4.77862   -9.59289   13.95032
       H   -12.62435  -19.05640   18.71232
       O   -13.07651  -18.24481   19.02470
      H1   -12.35307  -17.58696   19.24593
       H    -3.36486   -8.17799   16.25134
       O    -3.49082   -7.65398   17.02831
      H1    -4.40816   -7.89943   17.24371
       H    -8.43665  -17.86107   12.05271
       O    -9.10592  -17.12865   12.27461
      H1    -9.96978  -17.46416   11.98032
       H   -15.15701  -14.87757   16.25541
       O   -15.83131  -14.30319   15.93748
      H1   -15.38337  -13.86198   15.18642
       H    -3.33848  -11.04253   17.40007
       O    -4.02154  -11.30461   16.74644
      H1    -4.21284  -10.48854   16.35027
       H    -6.95391   -5.53980   17.64245
       O    -7.07701   -4.64387   17.96887
      H1    -8.03696   -4.51185   17.93132
       H    -7.90541   -7.38015   15.31481
       O    -8.00704   -6.43428   15.43924
      H1    -8.65138   -6.28131   14.80351
       H    -6.25392   -8.76987   18.02986
       O    -6.08017   -8.60118   17.06380
      H1    -6.65785   -9.37718   16.78428
       H   -12.44851  -11.33657    9.76354
       O   -12.16911  -12.21295   10.13639
      H1   -13.02917  -12.60592   10.32187
       H    -5.13069  -12.50643   17.46818
       O    -5.25084  -13.23544   18.12010
      H1    -5.43783  -14.02228   17.61872
       H    -9.59279   -6.54101   16.40110
       O   -10.46714   -6.32811   16.77689
      H1   -10.83328   -7.17410   17.11714
       H   -10.43218  -14.83037   10.00331
       O   -10.63709  -15.74331    9.63984
      H1   -11.12264  -15.71219    8.76269
       H    -1.81847  -15.11196   18.65978
       O    -1.48525  -14.69355   17.82576
      H1    -2.27989  -14.56628   17.31176
       H    -4.14920  -14.67532   16.22492
       O    -3.34311  -14.19547   15.95313
      H1    -3.61431  -13.41599   16.51930
       H   -11.29244  -16.84658   10.71161
       O   -11.58072  -17.48590   11.37000
      H1   -11.99172  -16.88970   12.05608
       H   -14.29049   -8.40539   16.19029
       O   -14.15078   -9.23098   16.71906
      H1   -13.27338   -9.50068   16.24748
       H   -14.15434   -7.47226   19.57057
       O   -13.54560   -7.55150   18.75644
      H1   -13.99829   -8.20000   18.26674
       H    -8.46101  -15.37083   14.52285
       O    -8.94254  -14.87305   13.90911
      H1    -8.94919  -15.42461   13.11011
       H   -11.85841   -7.74973   14.58948
       O   -12.47984   -7.23269   15.09704
      H1   -11.79064   -6.76686   15.58421
       H   -11.82622  -13.20479   13.04523
       O   -12.06645  -12.31781   12.87090
      H1   -12.10299  -12.23057   11.89589
       H   -13.46527  -14.71710   11.57418
       O   -13.95601  -14.02273   11.09034
      H1   -14.08366  -14.48720   10.21884
       H   -12.41868  -15.00786   14.44604
       O   -11.98860  -14.93738   13.52678
      H1   -11.05707  -15.09063   13.70455
       H    -9.91238  -11.34198   17.68627
       O    -9.74721  -12.24642   17.38255
      H1    -9.19637  -12.55335   18.10678
       H    -2.53598   -9.26569   18.40706
       O    -2.36724  -10.22243   18.43979
      H1    -1.60619  -10.25916   17.79445
       H    -3.00172  -15.41799   12.65723
       O    -2.45411  -15.64218   13.48189
      H1    -2.95822  -15.12421   14.12696
       H    -8.23647  -13.52971   19.70161
       O    -7.93419  -12.69638   19.28332
      H1    -7.09474  -12.98481   18.85196
       H   -11.83453   -8.07172   12.60551
       O   -11.35595   -8.86472   12.91010
      H1   -12.10568   -9.38808   13.22469
       H   -13.99255  -17.22134   17.87966
       O   -14.69898  -16.90468   17.23105
      H1   -14.67224  -17.75827   16.76376
       H    -2.41069  -11.63219   15.07524
       O    -1.70535  -11.44138   14.48319
      H1    -1.11756  -12.13435   14.48642
       H   -15.58096  -12.12051   16.43334
       O   -15.95228  -11.33792   15.93731
      H1   -15.39062  -10.53414   16.13592
       H    -8.95024   -8.64824   19.80587
       O    -9.01068   -9.54135   19.54216
      H1    -8.04224   -9.61204   19.22803
       H    -7.43816  -19.33183   16.84795
       O    -6.67177  -18.99964   16.32080
      H1    -5.88572  -19.00356   16.88828
       H    -9.43534  -15.05383   17.10133
       O    -8.80919  -15.79789   17.21815
      H1    -8.98643  -16.24582   16.39296
       H   -15.43297  -12.93922   13.15904
       O   -14.67897  -13.08560   13.81177
      H1   -13.89963  -13.15298   13.19320
       H   -10.11688  -11.74874   13.32505
       O    -9.22108  -11.78651   13.60769
      H1    -8.90300  -12.65295   13.39401
       H    -2.17127   -9.37392   13.87316
       O    -2.71062   -8.73320   14.32881
      H1    -2.27626   -7.89441   14.29617
       H   -10.09473  -12.87725   10.30604
       O    -9.55677  -13.53103   10.79059
      H1    -8.66199  -13.22520   10.50951
       H    -4.20268   -5.13812   19.95323
       O    -4.23241   -5.36692   18.99355
      H1    -3.60024   -6.14201   18.93731
       H    -6.70644  -17.18582   14.07436
       O    -6.99189  -16.76549   14.92362
      H1    -7.11029  -17.59606   15.39343
       H    -6.26806  -18.23566   11.67060
       O    -6.03300  -17.72655   12.46965
      H1    -5.96768  -16.83612   12.15414
       H   -14.03258  -11.62433   19.05761
       O   -14.34101  -12.49812   18.69058
      H1   -15.32870  -12.27318   18.77361
       H   -10.81853   -9.38454   18.63972
       O   -11.54864   -9.10342   18.03850
      H1   -12.20453   -8.76323   18.65953
       H    -5.92063  -16.21471   16.52030
       O    -5.14840  -15.83060   17.02011
      H1    -5.21065  -16.31111   17.82228
       H    -9.20843   -5.25369   12.94560
       O    -9.87833   -5.70223   13.44033
      H1   -10.38145   -6.10781   12.72626
       H   -10.61419   -4.13010   19.10867
       O    -9.99668   -4.89562   19.20690
      H1   -10.12479   -5.48962   18.43083
       H   -15.63547  -18.44569   20.10400
       O   -16.18602  -18.22252   19.32111
      H1   -15.55388  -17.66703   18.84113
       H    -5.02791  -10.46946   10.47613
       O    -4.89685  -11.25143   11.05756
      H1    -3.90947  -11.27788   11.22626
       H    -4.30568   -6.16735   15.74143
       O    -3.98798   -5.38665   15.23589
      H1    -4.94001   -5.23967   14.88726

