180
frame 0 | Written by MDAnalysis XYZWriter (release 2.4.3)
       H    11.57653  -13.17340   -4.22231
       O    10.76888  -13.20212   -4.74891
      H1    10.87376  -12.43933   -5.29914
       H     7.46129   -3.58792   -3.01934
       O     6.89573   -4.29177   -3.44052
      H1     6.43279   -3.78898   -4.15317
       H     8.21954   -8.53123   -1.29095
       O     8.94569   -8.99006   -0.72680
      H1     8.52115   -9.88560   -0.55162
       H    14.92704   -8.03284   -7.17341
       O    15.09609   -8.99814   -7.02396
      H1    14.69396   -9.17788   -6.16533
       H    16.56810   -6.74880   -4.26871
       O    16.54715   -7.02939   -3.32346
      H1    17.35249   -6.62743   -3.01696
       H    13.62986  -10.46770   -9.05475
       O    14.35740  -11.02434   -8.70189
      H1    14.75226  -10.34487   -8.07999
       H    14.48214   -5.14848   -5.56707
       O    13.96775   -5.34057   -6.37506
      H1    13.12572   -5.64656   -6.03276
       H     9.32796   -3.74377   -5.65403
       O     9.16555   -4.44584   -5.05115
      H1     8.36451   -4.23259   -4.54504
       H    11.62788  -11.62285    0.46699
       O    11.83348  -11.16597   -0.36369
      H1    11.16248  -11.50923   -0.97689
       H    13.79590   -5.68267   -2.81611
       O    13.48295   -5.00307   -3.43660
      H1    13.78515   -4.19543   -2.92434
       H    12.97520   -8.75717   -4.20585
       O    13.67927   -9.13258   -3.58292
      H1    13.24306   -9.99878   -3.39098
       H    13.79706   -4.37832   -8.07426
       O    13.41412   -4.17110   -8.93493
      H1    12.57762   -4.54911   -8.82675
       H    18.25961   -6.42107   -5.85714
       O    17.45144   -6.94772   -5.86846
      H1    16.98565   -6.51293   -6.61197
       H    12.60131   -8.05385   -0.71456
       O    12.65359   -7.44546   -1.48055
      H1    13.08127   -8.02688   -2.12350
       H     9.21448  -11.99128   -7.14238
       O     8.33997  -12.09366   -6.64787
      H1     7.75599  -11.60287   -7.23304
       H    11.83254   -9.19490   -9.41426
       O    12.29097   -9.78748  -10.05299
      H1    11.66572  -10.52179  -10.09701
       H    14.20994   -3.77539  -10.84201
       O    14.68190   -3.83396  -11.71198
      H1    14.09847   -3.32850  -12.29920
       H     7.52729   -5.80600   -7.36358
       O     7.62688   -4.82731   -7.61745
      H1     8.34240   -4.56025   -7.03420
       H    10.95251   -6.80689   -1.80240
       O    10.08463   -6.50309   -1.58077
      H1     9.75838   -7.04381   -0.88919
       H     4.93029   -3.99231   -5.62961
       O     5.79454   -3.62671   -5.87864
      H1     6.13504   -4.26691   -6.57025
       H     5.46521   -6.99589   -5.34231
       O     4.72780   -7.63968   -5.16897
      H1     5.19931   -8.40697   -4.93196
       H    16.40140  -13.26499   -3.55806
       O    15.53454  -12.83493   -3.70398
      H1    15.84985  -11.92497   -3.83549
       H    13.55610   -9.18496    1.32640
       O    12.67342   -8.89097    0.96380
      H1    12.41499   -9.68499    0.50341
       H    12.16758  -11.57570   -7.05307
       O    11.29955  -11.15122   -6.87033
      H1    11.58834  -10.31400   -6.41394
       H    13.78740  -12.59114   -3.35982
       O    12.85357  -12.27222   -3.33278
      H1    12.60815  -12.56722   -2.38796
       H    16.37111   -6.20818   -9.30748
       O    16.75470   -6.08152   -8.42689
      H1    17.50358   -5.56469   -8.60217
       H     7.93893   -6.72516   -2.28644
       O     7.22669   -7.36882   -2.18691
      H1     6.71720   -7.04371   -1.42944
       H    17.60950  -10.16795   -6.47518
       O    17.96880   -9.43275   -5.98238
      H1    17.48985   -8.57255   -6.13476
       H    10.32423   -4.52265   -2.40285
       O    10.20342   -3.55659   -2.52607
      H1    11.04499   -3.19034   -2.27403
       H    15.39299   -3.43204   -9.07745
       O    16.27490   -3.00211   -9.09925
      H1    16.93437   -3.68808   -9.29392
       H    10.08294   -7.75808   -7.92953
       O    10.36867   -8.05614   -8.79778
      H1    10.34530   -7.19530   -9.26270
       H    10.27707   -4.42177   -8.56506
       O    10.72849   -4.97366   -9.26246
      H1    10.60571   -4.30125   -9.98609
       H    10.54266   -5.51706   -5.42962
       O    11.48333   -5.85391   -5.29165
      H1    11.74487   -5.11213   -4.63043
       H     9.25447   -9.26787  -10.61466
       O     8.34025   -9.46060  -10.69083
      H1     7.98647   -8.85377  -11.36718
       H    16.19201   -8.46155   -1.47521
       O    16.06864   -8.77747   -0.56050
      H1    16.65086   -9.62232   -0.52359
       H     8.16314   -0.76520   -3.32647
       O     8.19705   -1.68570   -3.66109
      H1     9.11020   -1.76522   -3.85096
       H     8.51287   -9.67489   -4.40124
       O     7.85059   -9.76437   -5.08015
      H1     8.19015  -10.39388   -5.77136
       H     9.75066   -6.17199  -11.90093
       O    10.61156   -5.92836  -12.23786
      H1    11.27613   -6.30447  -11.65593
       H    17.07249  -10.16520   -9.11949
       O    17.40326   -9.61265   -9.90950
      H1    17.94600   -8.97099   -9.47574
       H    13.36005   -2.83164   -6.37505
       O    12.75960   -2.31515   -6.96542
      H1    12.89310   -2.83002   -7.77348
       H    10.87452   -2.82344   -7.03995
       O     9.97881   -3.05652   -7.18063
      H1     9.61906   -2.15036   -7.14866
       H    11.03938   -8.78288   -4.66728
       O    11.68329   -8.63661   -5.36761
      H1    11.63487   -7.70781   -5.57664
       H     9.60472  -12.87088   -3.29943
       O     9.07890  -12.52422   -2.59494
      H1     8.10825  -12.62367   -2.93333
       H    15.08205   -3.64363   -0.94065
       O    14.48623   -3.28448   -1.71714
      H1    15.15099   -2.95476   -2.29138
       H    15.04280  -15.35739   -5.44541
       O    14.81082  -14.42948   -5.64522
      H1    14.93848  -13.94639   -4.81299
       H     7.94429   -4.62921  -10.64122
       O     7.47314   -3.99116  -10.14901
      H1     7.62707   -4.29701   -9.23928
       H    16.81205   -9.53777   -4.40011
       O    16.33056  -10.12471   -3.82235
      H1    15.70432   -9.44866   -3.50246
       H    11.71193  -13.81684   -8.34067
       O    10.75435  -13.86884   -8.56478
      H1    10.75956  -14.83426   -8.33246
       H     9.36521   -9.84000   -2.33631
       O     9.85871  -10.10377   -3.15041
      H1     9.59569  -11.05154   -3.16658
       H     6.23788   -9.40623   -3.10221
       O     5.48274   -9.90542   -3.46333
      H1     4.86662   -9.72760   -2.74825
       H    15.44084   -1.48969   -4.70028
       O    15.41484   -2.32004   -5.24828
      H1    15.83632   -1.93950   -6.02053
       H    13.66587  -12.77870   -8.24122
       O    13.34149  -13.57800   -7.82863
      H1    13.85143  -13.80601   -7.07135
       H     6.67131  -11.41648   -4.53108
       O     6.89520  -12.30646   -4.32608
      H1     7.60659  -12.49556   -4.91241
       H    18.91799   -9.50357   -2.65853
       O    18.38126   -9.81746   -1.94921
      H1    17.67482  -10.14367   -2.50354
       H     7.15073   -9.97340   -8.83143
       O     6.90475   -9.95062   -7.94672
      H1     5.96427  -10.00844   -8.16151
       H    15.75615   -7.10111  -10.99855
       O    15.33723   -7.49841  -10.24012
      H1    15.79480   -8.34016  -10.26732
       H    13.63528   -7.19769  -11.12139
       O    12.84225   -7.44091  -11.58394
      H1    12.64748   -8.29258  -11.24217
       H     6.55095   -7.74853   -7.35443
       O     7.28098   -7.43308   -6.83645
      H1     7.63625   -8.17722   -6.43278
       H    11.04753  -12.86042  -10.13588
       O    10.81768  -12.49751  -10.99349
      H1    11.40309  -12.93788  -11.62512
       H     8.75263  -12.61674  -10.45914
       O     7.86988  -12.27375  -10.72347
      H1     7.97132  -11.32354  -10.63337

