180
frame 9 | Written by MDAnalysis XYZWriter (release 2.4.3)
       H     0.94979   15.16975  -11.74367
       O     0.86436   16.12765  -11.74699
      H1     0.99712   16.43476  -12.62568
       H     6.48608   13.01116  -12.19395
       O     6.39913   13.98291  -11.98555
      H1     5.66148   14.17014  -12.57180
       H     3.22054   10.61095  -12.00683
       O     4.09503   10.22798  -12.11270
      H1     4.45430   10.36403  -11.22665
       H     8.84725   14.47714   -6.05369
       O     9.62423   15.03948   -5.85868
      H1     9.38312   15.40586   -5.02038
       H     8.74994   16.91608  -15.39985
       O     9.36044   17.12394  -16.13461
      H1     9.22870   18.13318  -16.11059
       H     4.69659   11.82233   -2.67023
       O     5.52776   11.56977   -3.06889
      H1     5.35646   11.58663   -4.07175
       H     0.22033   15.33581   -1.95698
       O     1.12623   15.70156   -2.10625
      H1     0.93162   16.65758   -2.00423
       H     2.36603   19.68988   -5.93638
       O     2.96597   19.57188   -6.73207
      H1     3.12323   18.61632   -6.88918
       H     2.74582   18.52531   -3.84503
       O     1.97931   18.79498   -4.34089
      H1     1.67177   17.94887   -4.77728
       H     3.07313   16.80376  -11.45329
       O     3.59085   17.54282  -11.76820
      H1     2.94635   18.23627  -12.00276
       H     9.83296   17.63262  -11.51162
       O     9.96891   18.62066  -11.43615
      H1     9.89741   18.88050  -12.38229
       H     9.46919   13.70709  -14.18552
       O     8.96848   13.19974  -14.87469
      H1     9.73745   12.84378  -15.43010
       H    11.39331   19.14380  -10.52944
       O    12.15696   19.51384  -10.01130
      H1    12.71988   18.70701  -10.07526
       H    11.07433   11.54222   -9.08365
       O    10.52790   11.99652   -8.42568
      H1    11.08635   12.80141   -8.30553
       H    -1.77346   17.42825   -4.31031
       O    -1.17713   18.18620   -4.38671
      H1    -0.71101   18.08954   -5.24154
       H    10.32185   15.82227   -8.72583
       O    10.78138   15.10150   -8.35621
      H1    10.23776   15.06992   -7.52193
       H     8.33785   14.44156   -1.78896
       O     7.85258   15.24645   -1.88668
      H1     8.30413   15.88117   -1.19719
       H     0.97252   19.58485  -13.61759
       O     0.08905   19.24952  -14.01139
      H1    -0.36087   18.95085  -13.15483
       H     0.78046   13.98002   -9.32259
       O    -0.08363   13.63250   -9.10166
      H1    -0.44270   14.34985   -8.59837
       H     7.67893   19.36453   -3.39903
       O     8.02788   19.04839   -2.54523
      H1     8.55338   18.31600   -2.76857
       H     2.08298   13.71880   -4.87821
       O     1.74939   13.16663   -5.62449
      H1     0.80449   13.44001   -5.60444
       H    -1.10013   14.22157   -5.95264
       O    -0.94851   13.73891   -5.15105
      H1    -1.76494   13.13813   -5.21279
       H    -4.01281   17.13143   -8.76701
       O    -3.14250   16.79858   -9.07501
      H1    -3.46064   15.89582   -9.32064
       H    -2.13710   15.85171   -7.97028
       O    -1.73262   15.47331   -7.21591
      H1    -2.43157   15.71736   -6.50962
       H     4.05228   16.48943   -6.39221
       O     3.07576   16.41427   -6.28685
      H1     2.87035   16.15119   -7.23765
       H     4.62123    9.46789   -9.55125
       O     5.37538   10.14314   -9.50379
      H1     4.90578   10.98627   -9.67804
       H     5.63492   11.43785   -6.77643
       O     6.38781   11.13777   -7.28898
      H1     6.05325   10.76008   -8.12350
       H     0.16093   18.53427  -10.00980
       O     0.50129   18.47909   -9.08658
      H1     1.06414   19.28031   -9.12246
       H     4.71943   14.85412   -2.77604
       O     5.11838   15.08126   -1.94586
      H1     6.09436   15.02598   -2.03521
       H    -0.57283   13.13259  -11.99277
       O     0.15440   13.23629  -12.68721
      H1    -0.35675   13.77448  -13.32014
       H    -1.83713   16.63821  -11.84543
       O    -2.37066   17.43266  -11.74008
      H1    -2.82418   17.17266  -10.95719
       H     0.89679   16.35471  -14.69043
       O     1.43195   17.04409  -14.24056
      H1     0.78439   17.76044  -14.27064
       H     9.57088   17.49056   -7.16272
       O     9.94420   18.11820   -6.57894
      H1     9.97527   17.70969   -5.74739
       H     8.69426   18.90690   -5.82156
       O     7.88998   19.26143   -5.35578
      H1     7.44916   18.40792   -5.34225
       H     6.39124   15.12305   -9.95840
       O     6.58066   15.50568   -9.11777
      H1     7.11076   14.74815   -8.70268
       H    11.07259   18.80698  -14.53566
       O    10.54273   19.32418  -13.93831
      H1    11.20793   20.01348  -13.59101
       H    11.31647   14.80277  -10.08869
       O    11.39575   15.13815  -11.00479
      H1    10.53053   14.81229  -11.33438
       H    -0.95024   18.68578  -11.27377
       O    -0.32942   19.37580  -11.36834
      H1    -0.80092   20.25727  -11.39718
       H     8.89248   15.19562  -13.24707
       O     8.89949   14.60973  -12.47833
      H1     7.97134   14.31280  -12.52315
       H     4.22043   13.10912  -15.20143
       O     4.10215   12.63154  -16.04032
      H1     3.91972   13.36803  -16.63726
       H    11.34936   19.00222   -7.03560
       O    12.13882   19.54275   -7.27506
      H1    12.10365   19.36032   -8.26688
       H     4.30205   19.06870  -10.98515
       O     4.74923   19.42844  -10.17526
      H1     5.67066   19.71001  -10.46638
       H     8.64423   13.37077   -8.35677
       O     7.84887   13.60392   -7.91756
      H1     7.21032   12.84503   -8.06820
       H     7.24662   15.13526  -15.59181
       O     7.22104   15.80410  -14.82580
      H1     6.29217   15.98322  -14.67446
       H     7.93439   16.91585   -9.17521
       O     8.82785   17.21655   -8.93449
      H1     8.81367   18.19069   -9.05852
       H     0.03671   18.07058   -2.73253
       O     0.47248   18.33691   -1.91508
      H1     1.16542   18.87802   -2.38518
       H    11.90530   16.03277   -7.85039
       O    12.61879   16.62575   -7.50791
      H1    12.93320   16.96200   -8.38767
       H     4.39034   14.74546  -14.03229
       O     4.24502   13.85388  -13.67807
      H1     3.30698   13.72140  -13.45127
       H     4.16554   13.59518   -9.68454
       O     4.69493   12.84789   -9.98008
      H1     5.16226   13.20384  -10.70666
       H     2.29433   15.47023   -3.61173
       O     2.92433   14.95360   -4.10833
      H1     3.21133   15.50709   -4.83758
       H     4.31480   16.90439  -13.24021
       O     4.58719   16.57179  -14.07505
      H1     4.41097   17.36003  -14.56652
       H     0.37096   17.79202   -7.61241
       O     0.14112   17.61672   -6.64286
      H1    -0.42589   16.82860   -6.81674
       H     3.63118   12.76960   -5.37278
       O     4.20009   12.09093   -5.65698
      H1     3.55548   11.41086   -5.87023
       H     5.01501   18.16632   -8.92231
       O     4.96256   17.65789   -8.13228
      H1     5.40181   16.85117   -8.43830
       H     4.30602   17.96293   -1.64740
       O     4.17869   18.07178   -2.61161
      H1     4.31994   19.04758   -2.73268
       H     4.89547   18.20641   -5.45327
       O     5.41539   17.58723   -4.91847
      H1     5.04293   17.59754   -4.04746
       H     1.54612   16.66467   -9.19473
       O     2.27114   16.16172   -8.81650
      H1     3.04407   16.72211   -8.86808
       H     8.93365   16.35151   -2.93924
       O     9.41640   16.71362   -3.66841
      H1    10.21361   17.04373   -3.15464
       H     6.10695   11.12143  -13.09106
       O     6.86979   11.25278  -12.54206
      H1     7.62862   11.12848  -13.12945
       H     6.30970   18.40731   -1.09512
       O     6.09356   17.57909   -0.68977
      H1     5.73820   16.96712   -1.34146

