180
frame 8 | Written by MDAnalysis XYZWriter (release 2.4.3)
       H   -17.06606   -9.67953   16.35723
       O   -16.70566   -9.34996   15.49634
      H1   -15.81631   -9.80473   15.43733
       H   -17.56510   -1.64718    6.31909
       O   -16.80333   -1.61566    6.92988
      H1   -16.97319   -1.02144    7.68550
       H   -19.10662    0.96776   10.47102
       O   -19.74713    1.50422   10.03675
      H1   -19.26191    2.26551    9.71041
       H   -15.57128  -12.28407   10.23496
       O   -14.96849  -11.56313   10.11065
      H1   -14.80301  -11.32570   10.99695
       H   -16.98114    0.28446   10.14733
       O   -17.32719    0.54581   10.99560
      H1   -16.62228    1.16132   11.28208
       H   -18.66929   -6.75760   17.22825
       O   -18.12156   -7.31307   17.81373
      H1   -17.23963   -7.16213   17.49075
       H   -11.98615  -11.29720   13.16978
       O   -12.40467  -10.59785   12.62526
      H1   -13.08625  -10.14943   13.20504
       H   -12.09471   -3.85041   16.90973
       O   -12.51190   -3.26210   17.57776
      H1   -13.24765   -3.79689   17.83168
       H   -16.30020   -7.31146    4.99350
       O   -16.03317   -6.41662    5.30492
      H1   -16.30558   -6.57976    6.20678
       H   -18.65473   -1.03425    4.56634
       O   -18.73621   -2.00809    4.67717
      H1   -19.62870   -2.27788    4.52186
       H   -10.54195   -6.73720    6.83344
       O   -11.36296   -6.89351    7.40102
      H1   -12.07819   -6.48417    6.91970
       H   -16.03914  -12.98255    8.36969
       O   -16.90951  -12.67262    8.55531
      H1   -17.03842  -11.96283    7.93320
       H   -19.62302   -6.60201    7.75494
       O   -19.33477   -7.49475    7.65807
      H1   -18.36265   -7.48069    7.77243
       H   -13.95192  -12.81766   10.58415
       O   -13.50478  -13.70523   10.62019
      H1   -13.54042  -13.85970   11.58416
       H   -18.45457    2.48558   14.28905
       O   -19.06538    1.90098   13.76297
      H1   -18.58529    1.05736   13.75985
       H   -18.46757   -4.48111    7.76014
       O   -19.43704   -4.60737    7.63874
      H1   -19.67372   -3.78771    8.04756
       H   -18.84734   -5.89630   11.86199
       O   -18.24074   -5.19081   12.11049
      H1   -17.69966   -5.67437   12.76502
       H   -17.20262   -9.98258    8.19996
       O   -17.63591  -10.16385    7.29742
      H1   -18.55700  -10.47338    7.57188
       H   -12.38805   -6.78427   10.36502
       O   -11.59454   -7.26253   10.07418
      H1   -11.53375   -7.07870    9.11083
       H   -18.70025    1.69911   16.87575
       O   -19.29210    1.24529   17.54631
      H1   -19.02706    0.30990   17.36570
       H   -19.67314  -13.19598   16.32349
       O   -19.52732  -13.25194   15.39777
      H1   -19.28575  -14.17079   15.33557
       H   -15.20757  -11.38654   13.72046
       O   -15.43583  -11.81872   12.82280
      H1   -16.39272  -11.81868   12.83323
       H   -15.71623   -3.82740   16.28773
       O   -15.90096   -3.48694   15.43142
      H1   -15.65971   -2.53776   15.48753
       H   -15.42374   -0.64411   16.86327
       O   -15.12156   -1.10307   16.08667
      H1   -14.27127   -0.64340   15.86482
       H   -15.64640  -10.09402   19.03525
       O   -15.65693  -10.72580   18.25978
      H1   -16.62357  -10.86189   18.18171
       H   -15.54691   -4.33865   18.89205
       O   -15.36394   -4.65147   17.97762
      H1   -15.58208   -5.61258   18.10325
       H   -17.05488   -9.29189    5.94792
       O   -16.60869   -9.10874    5.12779
      H1   -16.26161   -9.91798    4.77271
       H   -17.53494   -9.87878    9.97335
       O   -16.63791   -9.49983    9.71516
      H1   -16.08810  -10.28081    9.79277
       H   -15.83985   -7.68914    8.04986
       O   -16.53115   -6.98689    7.87061
      H1   -16.64793   -6.60409    8.75353
       H   -17.06080   -7.81891   14.03514
       O   -16.72088   -7.05218   13.55089
      H1   -16.10483   -7.53998   12.92747
       H   -14.22301   -7.87594   18.96930
       O   -13.56397   -7.51030   18.36701
      H1   -13.93669   -7.71556   17.51975
       H   -11.19312   -7.85174   13.32018
       O   -11.34358   -7.16362   13.97912
      H1   -10.97566   -7.54019   14.78172
       H   -17.03987  -14.78500   11.49899
       O   -16.67299  -13.93709   11.16879
      H1   -17.10022  -13.76258   10.26438
       H   -14.26002   -9.40919    7.12417
       O   -14.29911   -8.52795    6.84324
      H1   -14.70922   -8.46326    5.97640
       H   -14.78842   -4.10672   14.18554
       O   -14.15866   -4.62486   13.71257
      H1   -13.52476   -4.88677   14.44627
       H   -12.34254   -6.23549   15.20285
       O   -12.85516   -5.57031   15.78892
      H1   -13.55758   -6.09799   16.12845
       H   -10.81755   -8.29585   11.32947
       O   -10.48921   -8.94773   11.94704
      H1   -11.20285   -9.54603   12.14564
       H   -13.77946   -4.86420    6.12885
       O   -13.15894   -5.64067    5.87757
      H1   -13.83570   -6.26190    5.56447
       H   -13.63242  -10.43553   15.58272
       O   -14.32095  -10.94604   15.06554
      H1   -14.45248  -11.66707   15.70212
       H   -18.97216   -7.36749    3.94559
       O   -18.71160   -8.02205    3.24141
      H1   -18.57579   -8.76334    3.81669
       H   -18.47658   -0.98845   11.38209
       O   -18.84411   -1.81702   11.68245
      H1   -18.16771   -1.99305   12.34791
       H   -16.14256    1.07958    7.81894
       O   -16.15039    0.35608    8.48267
      H1   -15.24843    0.30105    8.80460
       H   -11.27249   -3.19910   10.21122
       O   -12.21637   -3.31397   10.26844
      H1   -12.44874   -2.71627   11.04698
       H   -16.68631   -0.56763   14.35844
       O   -17.61792   -0.49767   14.54577
      H1   -17.51190   -0.12668   15.43961
       H   -19.45138    0.47657    8.43994
       O   -19.13652   -0.05225    7.69634
      H1   -19.91071   -0.59488    7.59830
       H   -14.35803   -0.79519   10.70398
       O   -13.84379   -0.33763   10.04251
      H1   -13.59816   -1.00753    9.43794
       H   -18.39165   -9.43406   18.16972
       O   -18.66830  -10.19149   17.67482
      H1   -19.18943  -10.64456   18.42053
       H   -17.48212   -2.83227   18.37749
       O   -17.13617   -1.95752   18.45333
      H1   -16.52607   -2.10847   19.18519
       H   -14.50680   -0.89246   13.02667
       O   -15.14786   -0.21858   13.32171
      H1   -14.79765    0.56554   12.90786
       H   -18.69515  -11.59239   14.43178
       O   -18.43632  -10.85946   13.85759
      H1   -17.89336  -10.26855   14.38300
       H   -17.07458   -3.51794    4.64876
       O   -16.37706   -3.95573    4.15918
      H1   -16.19199   -4.77643    4.69162
       H   -14.10208   -5.41694   11.76610
       O   -13.77793   -5.42918   10.80351
      H1   -13.13773   -4.63817   10.88589
       H   -15.14455   -2.69001    7.06107
       O   -14.19191   -3.06569    7.06281
      H1   -13.56744   -2.42305    7.31623
       H   -16.04319   -5.07306   10.07815
       O   -16.87469   -5.08037    9.62140
      H1   -17.44566   -4.97774   10.38905
       H   -12.24178   -1.99425   13.12207
       O   -13.08797   -2.25179   12.65402
      H1   -13.13198   -3.17700   12.94128
       H   -15.57168   -6.39649   15.36202
       O   -15.34400   -6.97370   16.12501
      H1   -15.87120   -7.73948   15.68715
       H   -18.56699   -3.35936   15.73754
       O   -18.97775   -2.82709   15.09355
      H1   -18.29444   -2.21489   14.78381
       H   -19.83523   -3.19321   17.94928
       O   -19.37878   -4.01823   17.92650
      H1   -19.33414   -4.18747   18.86681
       H   -14.35797   -8.22427   11.12839
       O   -15.11839   -8.22983   11.73294
      H1   -15.74990   -8.21422   11.01485
       H   -16.03664   -1.35621    4.46293
       O   -15.70065   -0.60039    4.87224
      H1   -16.08541   -0.79033    5.76717

