180
frame 4 | Written by MDAnalysis XYZWriter (release 2.4.3)
       H    11.23313  -12.54476   -4.30736
       O    10.37404  -12.83151   -4.66319
      H1    10.23672  -12.25542   -5.42419
       H    14.57489   -9.70553  -13.56330
       O    14.67273   -9.57315  -14.48985
      H1    13.78613   -9.52159  -14.79120
       H    12.82790  -13.94810   -2.47832
       O    12.59163  -14.65635   -1.84406
      H1    12.48431  -15.49098   -2.37135
       H    12.47402   -8.74903   -7.36645
       O    13.40764   -8.97937   -7.62433
      H1    13.85186   -8.57095   -6.92065
       H    16.11884   -5.69846   -4.24936
       O    16.58669   -4.97083   -3.92067
      H1    17.23047   -5.32150   -3.27968
       H    12.28194  -10.89142   -9.36038
       O    12.67536  -11.33780   -8.58460
      H1    13.35846  -10.71665   -8.22578
       H    13.23539   -4.35309   -5.26263
       O    13.08678   -5.24582   -5.57806
      H1    12.33562   -5.54378   -5.02694
       H     9.12821   -5.11583   -4.80725
       O     9.11976   -5.80233   -5.48156
      H1     8.26014   -6.30374   -5.29919
       H    12.11519  -12.75971   -0.67329
       O    12.33114  -11.85973   -1.02284
      H1    11.45460  -11.55124   -1.13266
       H    13.01352   -5.73386   -1.50495
       O    13.14581   -4.78683   -1.65984
      H1    14.08152   -4.64539   -1.61262
       H    13.73448   -8.45594   -3.48310
       O    14.32122   -8.71705   -2.75246
      H1    13.93763   -9.56119   -2.49845
       H    13.71147   -4.76470  -11.09417
       O    13.29397   -3.91183  -11.14581
      H1    12.42467   -4.13276  -10.83656
       H    15.22298   -6.65947   -6.84560
       O    14.96187   -7.18655   -6.07937
      H1    14.18861   -6.60655   -5.88450
       H    11.61121   -7.33805   -0.17659
       O    12.00018   -7.35791   -1.03410
      H1    12.77868   -7.84265   -0.82347
       H     9.02520  -15.41958   -4.27386
       O     9.80027  -15.35722   -4.87358
      H1     9.94256  -14.41757   -4.88733
       H     7.94542  -11.30493   -6.77706
       O     6.95976  -11.38465   -6.82798
      H1     6.68649  -10.63805   -7.37090
       H    18.38315  -12.72323   -6.79514
       O    19.03923  -12.94663   -6.16375
      H1    19.36134  -13.84816   -6.46212
       H    10.69714   -9.83179  -10.34243
       O    11.67040  -10.02058  -10.61610
      H1    11.48624  -10.43294  -11.50094
       H    19.08462   -3.79547   -6.14315
       O    18.30060   -4.29224   -6.45142
      H1    17.85122   -4.45339   -5.64011
       H     8.34394   -4.87100   -6.75284
       O     8.12231   -4.38145   -7.55748
      H1     8.87708   -3.76569   -7.57695
       H    17.89799  -12.90077  -11.03988
       O    18.64103  -12.40153  -10.70684
      H1    19.26846  -12.97344  -10.29292
       H    19.71997  -10.30336   -6.74719
       O    18.92308   -9.84846   -6.43661
      H1    18.19308  -10.49663   -6.42593
       H    16.65819  -12.61673   -8.87600
       O    17.23578  -12.00066   -8.43759
      H1    17.82705  -11.75898   -9.17468
       H    15.95121  -13.98669   -2.57905
       O    15.71664  -13.61322   -3.42510
      H1    16.00158  -12.67443   -3.38322
       H    10.26940  -11.90502   -7.53511
       O     9.75469  -11.29375   -6.88725
      H1    10.38173  -10.56122   -6.78565
       H    13.87844  -12.76466   -3.82114
       O    13.05650  -12.33665   -3.60728
      H1    13.17478  -12.21140   -2.62070
       H    15.11828   -5.89764   -9.30749
       O    15.76463   -5.73897   -8.56127
      H1    16.16352   -4.92866   -9.01656
       H    17.95004   -4.03618   -8.34630
       O    17.72035   -3.95956   -9.31415
      H1    18.56900   -4.11897   -9.81135
       H    16.39744  -11.42295   -6.88843
       O    16.26588  -10.81347   -6.11924
      H1    15.95711   -9.98375   -6.55963
       H    18.68994   -7.77541   -9.12007
       O    18.54183   -8.06289   -9.98863
      H1    18.96820   -7.30789  -10.49941
       H    15.06022   -3.52186   -7.98007
       O    15.65125   -2.92758   -7.39623
      H1    16.38382   -3.36958   -7.05432
       H    10.43406   -6.56362   -9.07663
       O     9.64181   -6.79854   -8.58209
      H1     9.24413   -5.88862   -8.51042
       H    10.33168   -4.03671  -10.10279
       O    10.89851   -4.83852  -10.21391
      H1    10.62645   -5.19828  -11.07830
       H    10.54876   -6.29286   -4.25857
       O    11.35634   -6.79375   -4.01413
      H1    11.39894   -6.67152   -3.06525
       H     9.24372   -8.25704   -9.54666
       O     9.09083   -9.12432  -10.01113
      H1     8.88918   -8.84063  -10.88678
       H    15.16987   -6.16633  -13.93861
       O    15.47360   -6.56890  -13.06481
      H1    16.37554   -6.28337  -12.87663
       H    15.22412  -13.18831  -11.50255
       O    15.93606  -12.52283  -11.53112
      H1    15.88544  -12.24941  -12.42127
       H     9.42076  -10.02177   -3.24043
       O     8.74188   -9.47637   -3.58842
      H1     8.06232  -10.11788   -3.76745
       H    12.57819   -2.06222   -4.02870
       O    12.26331   -2.86768   -4.41867
      H1    11.57082   -2.59212   -5.04901
       H     8.93305   -6.19707  -12.20154
       O     9.82329   -5.84480  -12.49492
      H1    10.33247   -6.67788  -12.54225
       H    16.44281  -10.08459   -9.36183
       O    16.04373   -9.27585   -9.74117
      H1    16.81471   -8.61693   -9.75099
       H    12.78016   -4.57970   -7.35192
       O    12.82624   -3.84496   -7.99983
      H1    12.80172   -4.23974   -8.87116
       H    11.36723   -2.94700   -7.29316
       O    10.52027   -2.80369   -6.78820
      H1    10.20355   -1.87788   -6.99704
       H    10.28143   -7.69920   -7.10606
       O    10.76322   -8.41045   -6.65950
      H1    10.94480   -8.01703   -5.81073
       H    18.89856   -6.40161   -6.79178
       O    19.29741   -7.11438   -7.32233
      H1    19.18752   -8.00951   -6.87449
       H    16.51434   -8.53917  -14.07340
       O    17.28727   -8.75480  -14.65451
      H1    18.07491   -8.65191  -14.10282
       H    15.11200  -15.60363   -5.67487
       O    15.14954  -14.66381   -5.96725
      H1    15.58848  -14.26441   -5.16781
       H    16.36911  -11.11866   -4.47828
       O    16.53404  -11.08172   -3.49393
      H1    16.19241  -10.18923   -3.29299
       H    11.31727  -13.74744   -8.07337
       O    10.43379  -13.47041   -8.26344
      H1     9.87798  -14.17254   -7.86187
       H    15.75419  -14.49946   -7.55905
       O    15.86317  -14.40422   -8.52886
      H1    15.08799  -14.90599   -8.92157
       H    10.20718  -12.11670  -13.07521
       O    10.84932  -11.40755  -13.15204
      H1    11.71731  -11.82029  -13.29412
       H    13.13639  -12.90602   -8.11765
       O    13.13192  -13.75065   -7.65269
      H1    13.79282  -13.64744   -6.92308
       H    19.44701   -9.98845   -4.76549
       O    19.60881  -10.47710   -3.93649
      H1    18.74410  -10.95041   -3.87141
       H    14.93539   -9.56154  -10.94086
       O    14.25098   -9.75860  -11.62377
      H1    13.55393  -10.27119  -11.22980
       H     7.52603   -9.25870   -9.14989
       O     6.59001   -9.44008   -8.88559
      H1     6.25465   -8.69993   -9.46491
       H    14.68836   -6.94876  -11.27652
       O    14.14550   -6.66473  -10.53283
      H1    14.03955   -7.54611  -10.13519
       H    12.48704   -7.39733  -13.12575
       O    11.64671   -7.86502  -12.85013
      H1    11.97015   -8.33170  -12.05509
       H     7.89461   -8.21036   -7.10549
       O     7.70693   -8.19595   -6.15578
      H1     8.47727   -8.58385   -5.65680
       H    10.31789  -13.50376  -10.31875
       O    10.30111  -13.55688  -11.27179
      H1    11.05339  -14.20057  -11.44097
       H     8.93564  -12.51404  -11.32995
       O     8.10243  -12.03672  -11.29195
      H1     8.32558  -11.13733  -10.98662

