180
frame 6 | Written by MDAnalysis XYZWriter (release 2.4.3)
       H    -3.35944   -5.46476    5.43664
       O    -4.10842   -5.00492    5.01369
      H1    -4.71338   -5.26749    5.72219
       H   -17.41803   -2.38873    6.33759
       O   -17.05398   -1.59363    6.81851
      H1   -17.79437   -1.43615    7.45295
       H   -15.77079   -6.72485    1.60685
       O   -15.58133   -5.98359    2.16559
      H1   -14.97404   -6.45630    2.78308
       H   -10.79575   -2.33546   -0.15340
       O   -10.11507   -1.70605   -0.44567
      H1    -9.35980   -2.18453   -0.03183
       H   -13.26269    1.22035    3.66729
       O   -14.22307    1.42749    3.65952
      H1   -14.21342    2.38473    3.57609
       H   -11.26104   -2.07155    8.44609
       O   -11.43900   -2.47353    7.57305
      H1   -10.50719   -2.79102    7.41550
       H   -13.59854    3.19644    5.53076
       O   -13.62047    2.67813    6.35028
      H1   -13.27855    1.84284    5.98544
       H   -10.65667   -1.31610   11.01636
       O   -10.83180   -1.23702   10.05462
      H1   -11.67930   -0.82293   10.00390
       H   -13.12159   -3.31972    0.73972
       O   -12.14558   -3.29822    0.53155
      H1   -11.64587   -3.41533    1.33843
       H   -14.26820   -7.34154    4.99891
       O   -14.78979   -6.50849    4.87541
      H1   -15.32477   -6.50623    5.66659
       H   -16.97735   -3.47332    4.75545
       O   -17.92264   -3.48828    5.10179
      H1   -18.29073   -3.14504    4.30373
       H   -12.57374    3.57246   10.01701
       O   -11.61553    3.49473    9.71414
      H1   -11.55008    2.67702    9.19217
       H    -8.78574    3.39384    6.77257
       O    -8.33012    2.99144    7.48889
      H1    -8.83519    2.19368    7.64182
       H    -6.06033   -1.97777    2.98725
       O    -5.63993   -1.76324    2.10558
      H1    -6.39184   -2.10291    1.52667
       H    -6.60427   -7.19538    5.97643
       O    -6.97601   -8.04867    6.21642
      H1    -6.91623   -7.92912    7.16330
       H   -11.46964    0.94626    7.27827
       O   -10.77938    1.49640    7.73845
      H1   -10.88923    2.38353    7.26584
       H   -11.81837   -6.13098    7.90204
       O   -11.02356   -6.60447    8.30081
      H1   -10.36336   -5.99291    7.98517
       H    -6.37803   -5.73963   -0.32540
       O    -6.86220   -6.54600   -0.10373
      H1    -7.26168   -6.40602    0.74727
       H    -9.49643   -9.09385    4.95558
       O    -9.91329   -8.61369    4.23611
      H1   -10.84888   -8.64090    4.33328
       H   -11.32377   -1.96175    3.71984
       O   -10.62484   -2.13852    4.36670
      H1   -10.42587   -3.03001    4.16762
       H   -11.44170    1.16131    0.29211
       O   -11.21239    0.64529    1.07343
      H1   -10.56929    0.02658    0.71342
       H    -8.15468    2.40786    4.77475
       O    -8.96154    1.86347    4.83202
      H1    -8.67997    1.02263    5.14856
       H    -9.51947   -1.05799    3.38547
       O    -8.90296   -0.71929    2.67355
      H1    -8.82596   -1.46563    2.03976
       H    -4.94584   -3.29658    2.49528
       O    -4.94416   -4.26796    2.48946
      H1    -4.74211   -4.29404    3.46227
       H    -7.93845   -3.90996    1.14244
       O    -8.14594   -3.07877    0.72647
      H1    -7.49149   -2.91140    0.03518
       H   -15.33229   -3.00209    2.06808
       O   -14.91744   -2.62317    1.28618
      H1   -15.33466   -1.76504    1.23450
       H   -13.07310   -0.38383    5.08092
       O   -12.87903   -0.09058    5.93708
      H1   -12.19284   -0.63834    6.33942
       H   -16.88103   -6.18040    7.51930
       O   -15.89272   -6.23115    7.53688
      H1   -15.69540   -5.35915    7.92123
       H   -15.25729    0.27793    0.22522
       O   -15.55086   -0.05099    1.12210
      H1   -14.87592    0.29445    1.70705
       H   -15.25413    2.26927    6.58431
       O   -16.22402    2.30395    6.45550
      H1   -16.40059    2.90689    7.19090
       H    -4.83862   -0.80977    6.38675
       O    -5.78209   -0.58221    6.55431
      H1    -5.92261    0.36214    6.30592
       H    -8.76591   -0.72953    9.45705
       O    -7.81876   -0.75608    9.68683
      H1    -7.52260    0.16582    9.79092
       H   -11.15800    1.39038    2.72041
       O   -11.37212    2.11653    3.37136
      H1   -10.55525    1.95087    3.91013
       H    -6.44159   -5.15842    2.44980
       O    -7.38425   -5.28907    2.32772
      H1    -7.63157   -5.65855    3.20941
       H    -6.83111    2.37070   -1.73246
       O    -7.53828    1.68406   -1.58024
      H1    -7.36628    1.41125   -0.67004
       H    -9.50308    3.68417    1.51842
       O   -10.17661    4.12453    1.99458
      H1   -10.60008    3.36894    2.47980
       H   -12.19374   -7.68541    2.67563
       O   -12.37773   -7.18060    1.85451
      H1   -12.97418   -7.74953    1.34958
       H   -12.04880   -4.10081    6.69418
       O   -12.07811   -4.85840    6.16702
      H1   -13.00632   -4.89347    5.90568
       H    -8.78712   -8.13200    9.20221
       O    -8.14751   -7.42404    9.03352
      H1    -8.85755   -6.79346    8.79357
       H   -13.51037   -2.06432    2.87333
       O   -12.83661   -1.33456    3.02596
      H1   -12.88232   -0.83400    2.16397
       H    -8.89177   -4.92841    6.69015
       O    -9.12809   -4.60623    7.55248
      H1    -8.33212   -4.26716    7.96861
       H   -11.67327   -5.71787    3.30457
       O   -11.36921   -4.89861    3.64591
      H1   -11.55698   -5.01578    4.58747
       H    -7.16143   -2.49038    8.99864
       O    -6.78175   -3.36425    8.74132
      H1    -6.37091   -3.61057    9.57022
       H   -10.81436    4.46416    5.48388
       O   -10.78868    4.47476    6.45249
      H1   -10.65289    5.40670    6.62116
       H   -15.74585    0.85074    7.85529
       O   -15.42699    0.80569    8.75410
      H1   -14.66881    0.17678    8.72633
       H   -11.28274   -3.73500   11.00414
       O   -11.99551   -4.21621   11.46118
      H1   -11.70521   -4.10330   12.36975
       H   -13.47798   -0.97225    9.88297
       O   -13.28715   -0.69197    8.98783
      H1   -13.29899   -1.50566    8.49745
       H    -5.10106   -5.73978    7.76812
       O    -5.79973   -5.45948    7.16861
      H1    -6.09123   -4.68855    7.72587
       H   -11.38076   -4.90835   -1.88481
       O   -11.45527   -5.46499   -1.05993
      H1   -11.60748   -4.88405   -0.31697
       H    -7.85209   -1.82741    4.53532
       O    -6.93895   -2.13992    4.55476
      H1    -6.46994   -1.79444    5.36348
       H   -12.39765   -9.17071    5.32334
       O   -12.60653   -8.73868    4.45181
      H1   -12.80220   -9.58438    4.03399
       H   -14.82512   -3.87245    4.72682
       O   -14.93123   -3.82245    3.73731
      H1   -15.11509   -4.73176    3.59788
       H    -6.61459    0.71915    1.15310
       O    -7.52565    1.11228    1.18606
      H1    -7.91708    0.43449    1.81430
       H    -9.57592   -5.72998    3.97438
       O    -8.90466   -5.84876    4.65033
      H1    -8.85270   -6.82852    4.80586
       H   -15.36986   -2.61826    6.80530
       O   -14.48308   -2.70237    6.47049
      H1   -14.35111   -1.75696    6.14166
       H    -7.81175   -0.53127    7.07176
       O    -8.67033   -0.29961    6.69094
      H1    -9.00059    0.39997    7.30110
       H   -10.80463   -0.80555   -2.22187
       O   -11.03013   -0.29861   -3.02913
      H1   -11.68224   -0.90286   -3.47462
       H    -6.80770    2.81211    2.23963
       O    -6.25745    3.47261    2.66932
      H1    -5.52923    3.68665    2.04306
       H    -5.58624    2.53001    5.42310
       O    -5.50349    1.88343    4.69061
      H1    -5.65275    2.49195    3.91428
       H   -16.05166    0.24829    4.05753
       O   -16.20402   -0.63401    4.24086
      H1   -16.49486   -0.64572    5.15627

