180
frame 6 | Written by MDAnalysis XYZWriter (release 2.4.3)
       H    -1.97486   -9.40052  -14.87606
       O    -1.92774   -8.86829  -14.03709
      H1    -2.46677   -9.44811  -13.47717
       H    -1.51671  -13.38195   -8.28981
       O    -1.06704  -13.20311   -9.11862
      H1    -0.56011  -12.46193   -8.77382
       H    -2.29237  -12.41015  -15.30728
       O    -2.39896  -11.80655  -14.58231
      H1    -2.65165  -12.36202  -13.83775
       H    -0.80521  -11.53955  -18.75329
       O    -1.17881  -11.27021  -17.85545
      H1    -1.34070  -12.18224  -17.53942
       H     6.87048   -6.32172  -10.71307
       O     7.39430   -5.58091  -11.19364
      H1     7.26230   -5.78520  -12.12809
       H     7.10224   -9.17861  -17.87071
       O     6.51012   -9.90442  -18.10339
      H1     6.89866  -10.15889  -18.92709
       H    -1.35347   -9.27192   -8.11333
       O    -2.21536   -9.46200   -7.74745
      H1    -2.18359  -10.40891   -7.64736
       H     3.38548  -13.66565  -12.35469
       O     3.00657  -13.20525  -13.11012
      H1     2.51046  -14.00836  -13.45440
       H     3.98739   -3.07941  -10.94204
       O     3.61916   -3.83506  -10.42011
      H1     3.43645   -3.49082   -9.51245
       H     1.96303  -13.14442  -17.74985
       O     2.75497  -13.04556  -17.18224
      H1     3.49748  -13.20370  -17.82402
       H     1.37595   -2.93962  -12.52507
       O     1.02684   -2.71929  -11.69870
      H1     1.27039   -3.55543  -11.26347
       H     3.00418  -12.84491   -8.65464
       O     2.30996  -12.23905   -8.23071
      H1     2.68035  -12.13274   -7.33405
       H     3.53528   -7.07713  -18.00795
       O     4.05906   -7.79199  -17.60719
      H1     4.98513   -7.50505  -17.79672
       H     3.55071   -7.64326   -7.07827
       O     3.26403   -7.38544   -7.95983
      H1     3.41895   -8.27123   -8.40845
       H    -2.99898   -4.89563  -10.21931
       O    -2.94784   -5.58760   -9.53161
      H1    -3.74165   -5.32904   -9.01600
       H     2.18723   -5.30037  -10.70991
       O     1.33578   -5.76846  -10.79649
      H1     0.90926   -5.65045   -9.94846
       H    -0.28966   -7.84026  -13.63279
       O     0.53488   -7.46209  -13.31120
      H1     0.23366   -7.27471  -12.37933
       H     3.46750   -6.53330  -14.82085
       O     4.26388   -6.99856  -14.94485
      H1     4.04354   -7.37071  -15.80976
       H     8.48498  -10.46626  -13.94829
       O     8.71534   -9.77381  -14.59426
      H1     9.65220   -9.81659  -14.68567
       H     0.85874  -10.82996  -10.27101
       O     0.42674   -9.98250  -10.55318
      H1     1.16823   -9.48136  -10.97662
       H     2.39162   -7.64393  -11.70875
       O     2.53056   -8.60957  -11.67421
      H1     2.32566   -8.87176  -12.63765
       H    -0.67042   -4.36561  -16.45821
       O    -0.90457   -4.36692  -15.50264
      H1    -1.23305   -3.49903  -15.35513
       H    -2.04401  -10.64348  -10.98215
       O    -2.68427  -10.12438  -11.47540
      H1    -2.60980   -9.18823  -11.22529
       H     9.19159   -6.93338  -15.13997
       O     8.37589   -6.58454  -15.53641
      H1     7.91642   -6.26138  -14.79014
       H    -3.18189   -7.67811  -14.32170
       O    -3.80836   -7.00217  -14.24875
      H1    -4.25281   -6.98964  -15.10665
       H    -2.91841  -14.49192  -12.88804
       O    -2.84000  -13.64402  -12.49727
      H1    -1.87729  -13.63989  -12.28207
       H    -0.72106   -3.59952  -11.66165
       O    -1.43439   -3.97251  -12.15672
      H1    -1.01287   -4.73944  -12.50551
       H     1.25028   -8.18807  -17.21154
       O     1.07407   -8.00933  -16.28325
      H1     1.29653   -7.08303  -16.14795
       H     0.79751   -9.38351   -7.09367
       O     1.22715   -9.82500   -6.32090
      H1     0.88034   -9.33584   -5.57514
       H     9.64925   -7.96669   -9.72354
       O     9.36602   -8.82827  -10.06842
      H1     9.17301   -8.55701  -10.99543
       H     1.58559   -5.81363  -18.68470
       O     2.52275   -5.64464  -18.52726
      H1     2.80534   -5.04121  -19.25984
       H     1.34906   -7.96036   -8.20329
       O     0.44316   -8.26389   -8.34431
      H1     0.45446   -8.78775   -9.12656
       H     7.23199   -8.35386  -12.22635
       O     8.15228   -8.15290  -12.46438
      H1     8.26094   -8.46108  -13.34557
       H    -1.69344   -9.59665  -17.47263
       O    -1.85395   -8.69678  -17.05666
      H1    -0.93299   -8.40019  -16.87261
       H     3.33037  -10.63731   -5.99143
       O     3.46695  -11.60552   -5.79937
      H1     4.27436  -11.49350   -5.25051
       H     6.24533  -11.22441  -16.66704
       O     6.04840  -12.11627  -16.33186
      H1     5.42337  -11.90293  -15.51418
       H     3.94969   -2.91075  -14.48039
       O     4.91103   -2.62146  -14.51617
      H1     4.92599   -2.27138  -15.39859
       H    -0.29166   -7.04098   -6.46303
       O    -0.30270   -6.51999   -5.61657
      H1    -0.04333   -7.16482   -4.93537
       H     6.14521  -15.40293  -13.34881
       O     6.01995  -14.86985  -14.17620
      H1     6.49083  -14.05865  -14.07296
       H     0.46187  -13.52964  -15.15674
       O     1.20024  -14.24208  -15.03747
      H1     1.85358  -13.89450  -15.69674
       H    -1.33124   -5.71232   -8.82983
       O    -0.41043   -5.83410   -8.56394
      H1    -0.34720   -6.82733   -8.59191
       H     6.26096   -3.82941  -14.22974
       O     6.95956   -4.38440  -13.92994
      H1     7.52137   -3.75945  -13.46150
       H     7.55408  -11.77638  -13.36916
       O     8.43474  -12.07437  -13.02395
      H1     8.26456  -12.19436  -12.03962
       H     6.96790   -6.56195  -16.74312
       O     6.26421   -6.46910  -17.43679
      H1     5.56858   -6.17872  -16.84445
       H     4.18350   -5.72193   -8.11510
       O     4.99777   -5.21400   -8.30025
      H1     4.45833   -4.51472   -8.73982
       H     1.96612   -9.16715  -14.97511
       O     2.10959   -9.81410  -14.27009
      H1     1.25514  -10.08038  -14.01498
       H    -3.95065   -7.20520  -12.34552
       O    -3.85555   -7.64195  -11.47097
      H1    -3.60303   -6.87073  -10.94775
       H     0.35750  -13.24910  -12.20254
       O    -0.06504  -14.02945  -11.76422
      H1    -0.30943  -13.58535  -10.91230
       H     5.67057   -6.77302   -9.00842
       O     5.96372   -7.46126   -9.66596
      H1     5.14292   -7.69851  -10.14553
       H     3.74892   -9.92075   -9.99565
       O     3.65449   -9.77841   -9.06645
      H1     3.46859  -10.70187   -8.83471
       H     5.05191  -13.97954   -8.93209
       O     4.18369  -13.85987   -9.26996
      H1     3.90454  -14.80244   -9.19047
       H    -0.78479  -11.21282  -13.63454
       O     0.04383  -11.36860  -13.13338
      H1     0.03105  -10.73084  -12.41308
       H     4.94256   -7.73722  -13.31318
       O     5.47581   -8.07968  -12.56660
      H1     5.13592   -8.90043  -12.11462
       H     7.77476   -9.32057   -9.08587
       O     6.99336   -9.66651   -8.64295
      H1     6.35921   -9.02020   -8.93947
       H     3.31531  -11.34068  -18.13512
       O     2.91994  -10.67417  -18.77967
      H1     3.32103   -9.82654  -18.44484
       H     0.56550   -5.19584  -15.11535
       O     1.45134   -5.63575  -14.89030
      H1     1.02394   -6.26586  -14.29841
       H     4.00582  -12.10128  -14.01043
       O     4.55147  -11.32692  -14.28649
      H1     3.84425  -10.71626  -14.42460
       H     7.31871  -12.40761   -9.97065
       O     6.43292  -12.01318  -10.11790
      H1     6.40973  -11.21819   -9.56188
       H     4.63313  -10.93595  -12.67191
       O     4.66836  -10.65224  -11.75097
      H1     5.29539  -11.31097  -11.34282
       H     1.87712   -4.02942  -14.57404
       O     2.11642   -3.07975  -14.36381
      H1     1.47522   -2.59556  -14.85494

