180
frame 1 | Written by MDAnalysis XYZWriter (release 2.4.3)
       H    17.05310   11.86372    3.51814
       O    16.64829   11.50243    2.69033
      H1    17.34928   10.95863    2.29453
       H    16.78194    4.28580    5.91457
       O    17.35202    3.78419    6.46739
      H1    16.81073    3.69391    7.27138
       H    16.13343    6.25006    4.25952
       O    16.68566    5.46489    4.02135
      H1    17.62099    5.82940    4.24901
       H    18.55052    9.69530    0.57460
       O    18.75630   10.11620    1.40161
      H1    19.72682   10.02245    1.52193
       H    14.97934    4.80886    2.08847
       O    15.20267    4.33601    1.25288
      H1    15.24888    3.40532    1.52107
       H    14.62235   14.33472    1.82904
       O    14.97464   14.39521    0.93730
      H1    15.82385   13.87629    0.86633
       H    15.46878   10.13184   -3.13051
       O    15.71637   11.09805   -3.26755
      H1    15.06486   11.57283   -2.72105
       H    18.55695   13.92057   -4.03341
       O    18.95268   14.55254   -3.45157
      H1    19.87758   14.19860   -3.33726
       H    14.25665    9.52009    1.97898
       O    14.73947    8.70411    2.05024
      H1    14.88814    8.45589    1.12444
       H    18.80049   13.89230    1.74515
       O    19.70696   13.79221    1.44877
      H1    20.28770   13.89537    2.24350
       H    18.50499    0.17437    2.60344
       O    18.77482    0.85353    1.96192
      H1    19.43314    1.39420    2.40258
       H    18.81965   11.30350   -4.27526
       O    18.38513   11.44262   -3.41241
      H1    17.47913   11.48533   -3.59494
       H    15.88567   11.91468   -0.82299
       O    15.54214   11.20940   -0.25068
      H1    16.23688   11.41266    0.41803
       H    10.86283    8.35214   -1.68608
       O    10.50804    9.23694   -1.47944
      H1    10.75475    9.61059   -0.60376
       H    12.08266    2.86500   -1.04001
       O    12.07428    3.83152   -1.00593
      H1    13.00245    4.20208   -1.12210
       H    13.31729    1.50094    5.81464
       O    13.72064    1.79290    5.00396
      H1    13.56911    2.71749    5.09590
       H    13.42956   11.10468    8.26544
       O    12.54579   10.81777    8.60760
      H1    12.27748   11.59140    9.16627
       H    18.93403   17.01867    2.25013
       O    19.66267   17.64423    2.05667
      H1    19.23920   18.50259    2.23187
       H    12.96549    5.52214    4.81568
       O    12.90306    4.82127    4.13639
      H1    11.97671    4.68404    4.01880
       H     9.85628    7.86248    4.78170
       O    10.26035    6.99019    4.71852
      H1    10.53716    6.95503    3.73503
       H    15.05728    9.47303    8.89911
       O    15.11556    8.91959    9.67534
      H1    14.26227    8.41312    9.52843
       H    15.64416    0.94575    2.24855
       O    16.10281    1.61223    1.79599
      H1    17.05178    1.33700    1.89303
       H    14.03399   16.29894    3.05495
       O    13.76849   15.49196    3.42747
      H1    13.50107   15.72075    4.35564
       H    12.90575    6.74746    7.02496
       O    12.77115    7.03774    6.08685
      H1    11.81697    7.00423    5.98375
       H    15.47852    1.36234    0.40154
       O    15.09397    1.52066   -0.50103
      H1    15.64479    2.21862   -0.90957
       H    16.98714    8.63881    3.69345
       O    17.89696    8.81348    3.62860
      H1    18.07045    9.03589    2.68261
       H    18.93930    2.25959    8.46484
       O    19.20075    3.18322    8.38596
      H1    18.65090    3.43014    7.62351
       H    18.85069    9.32385    6.19226
       O    18.95399    8.47076    6.63869
      H1    18.05073    8.20496    6.94429
       H    17.70494   10.49913   -1.65789
       O    17.92606    9.79263   -1.06520
      H1    16.99764    9.36112   -0.96647
       H    12.73695   11.09684   -2.94938
       O    12.28511   10.34012   -3.35208
      H1    11.56161   10.19022   -2.69556
       H    17.96106   10.19159    4.62056
       O    18.04171   10.97008    5.18576
      H1    18.98560   11.10610    5.13313
       H    15.68084    7.15424    7.85536
       O    16.22730    7.53405    7.10295
      H1    15.69590    7.95087    6.44470
       H    15.19597   16.02202    0.37963
       O    15.15737   16.92351    0.07194
      H1    14.17923   17.11177   -0.03173
       H    18.25977   13.12639   -1.08268
       O    17.30445   13.33898   -0.89759
      H1    17.13313   14.19237   -1.27493
       H    17.87296   10.78184    8.64031
       O    17.90076   11.53513    8.04488
      H1    18.13725   11.18262    7.20042
       H    14.58625    7.88682    3.58773
       O    14.90593    7.68525    4.46922
      H1    14.18107    7.27098    4.94797
       H    13.85771   13.71774    4.76936
       O    13.09897   13.43160    5.25314
      H1    13.40609   13.45508    6.15030
       H    18.85410    5.30501   -2.57261
       O    19.14571    6.03650   -1.98369
      H1    19.30362    6.81341   -2.49842
       H    12.44635    6.42270   -2.61804
       O    11.64661    6.91708   -2.47306
      H1    11.11983    6.71850   -3.24072
       H    17.22605    3.44983   -3.18901
       O    18.12264    3.50327   -2.82459
      H1    18.74512    2.88572   -3.16721
       H    16.16863   11.03781    7.84220
       O    15.28484   10.81236    7.68849
      H1    15.20930   10.77541    6.69092
       H    15.11623    9.57871    4.73134
       O    15.08771   10.53114    4.84104
      H1    15.58065   10.92837    4.06292
       H    18.32861    7.65599   -6.38743
       O    17.78098    7.49788   -5.60828
      H1    18.33393    7.97893   -4.97414
       H    17.58199    4.37513    0.74348
       O    18.12249    4.70664    1.48188
      H1    17.45125    4.72777    2.18108
       H    16.74746    1.96893    5.78998
       O    16.51207    1.02085    5.77153
      H1    15.69055    1.04304    5.27910
       H     9.89497    7.18429    1.66644
       O    10.75350    6.84523    1.94250
      H1    11.40502    7.51524    1.71666
       H    18.36017    9.30169    9.97399
       O    17.62739    9.89510   10.18465
      H1    16.84016    9.33484    9.97586
       H    17.25196   16.59964    4.06721
       O    17.83496   15.91567    3.62396
      H1    18.44131   15.72747    4.35111
       H    13.30796   13.56348   -2.54740
       O    13.64712   12.88936   -1.98698
      H1    13.18090   12.95139   -1.13039
       H    16.28621    7.52282   -0.20638
       O    15.47017    7.97188   -0.36263
      H1    14.84203    7.31818   -0.71016
       H    13.66415    9.20685   -3.08091
       O    14.56470    8.86198   -2.95511
      H1    14.55731    8.61363   -2.01311
       H    14.80014    6.27157   -5.14300
       O    14.06548    6.46787   -4.48755
      H1    14.28170    7.33059   -4.08267
       H    16.95079   14.41538    4.40167
       O    16.50204   13.75747    5.00919
      H1    17.23257   13.59968    5.67498
       H    14.45960    5.67402    9.30845
       O    15.41798    5.92059    9.33493
      H1    15.71830    5.98030   10.27276
       H    12.85763   10.82517    3.11227
       O    12.85910   11.06470    2.17498
      H1    11.98239   10.92046    1.78789
       H    13.64538   13.26318    0.56637
       O    12.66655   13.21876    0.57684
      H1    12.48791   12.54359    1.22519
       H    18.96437   12.66122    8.96318
       O    19.43299   13.28279    9.55028
      H1    18.92473   13.45215   10.33507
       H    16.37471   16.03565   -3.01675
       O    16.77441   15.80343   -2.12888
      H1    17.66182   15.48421   -2.39006
       H    14.87995    5.12514   -1.58622
       O    14.34094    5.59562   -0.96314
      H1    14.58627    5.19092   -0.14350
       H    18.13960    6.43241    0.78700
       O    18.23965    7.25410    0.33796
      H1    18.50407    6.96506   -0.54686

