180
frame 6 | Written by MDAnalysis XYZWriter (release 2.4.3)
       H   -16.14672    6.54213   -4.04570
       O   -16.25884    5.95620   -3.22073
      H1   -15.45735    5.44699   -3.13342
       H   -11.97631    8.11221   -2.44193
       O   -12.83773    7.65503   -2.41579
      H1   -13.10034    7.87983   -3.34160
       H   -12.29071    2.47144   -1.93049
       O   -11.84740    1.80027   -1.42744
      H1   -11.25642    1.26761   -1.99309
       H   -13.26269    1.22035    3.66729
       O   -14.22307    1.42749    3.65952
      H1   -14.21342    2.38473    3.57609
       H   -15.37077    3.98513   -0.93626
       O   -15.06250    3.59953   -0.09076
      H1   -15.87641    3.54754    0.43351
       H   -13.61047    1.22768   -1.25678
       O   -14.58551    1.28204   -1.28961
      H1   -14.73281    2.21280   -1.01103
       H   -15.05252    9.54996    7.54287
       O   -16.00664    9.76068    7.78353
      H1   -16.06123    9.56339    8.72361
       H   -13.59854    3.19644    5.53076
       O   -13.62047    2.67813    6.35028
      H1   -13.27855    1.84284    5.98544
       H   -12.57374    3.57246   10.01701
       O   -11.61553    3.49473    9.71414
      H1   -11.55008    2.67702    9.19217
       H    -8.78574    3.39384    6.77257
       O    -8.33012    2.99144    7.48889
      H1    -8.83519    2.19368    7.64182
       H   -11.57342    9.39058    7.69956
       O   -10.89746    9.08099    8.32823
      H1   -10.70370    8.24286    7.87089
       H   -11.46964    0.94626    7.27827
       O   -10.77938    1.49640    7.73845
      H1   -10.88923    2.38353    7.26584
       H    -7.58481    5.72691    5.36752
       O    -6.78997    5.36004    5.69171
      H1    -6.17386    6.11056    5.53502
       H    -9.64006    9.35147    2.65056
       O   -10.12163    9.81222    1.95067
      H1   -10.92988    9.28943    1.97484
       H   -16.71817    7.28357    5.53855
       O   -16.35000    7.21090    6.43528
      H1   -16.37306    8.16379    6.77706
       H   -11.44170    1.16131    0.29211
       O   -11.21239    0.64529    1.07343
      H1   -10.56929    0.02658    0.71342
       H   -10.85514    6.24489    4.11314
       O   -10.06731    5.69415    4.10554
      H1   -10.02727    5.04101    3.34042
       H    -8.15468    2.40786    4.77475
       O    -8.96154    1.86347    4.83202
      H1    -8.67997    1.02263    5.14856
       H   -19.33056    9.92929    4.54404
       O   -19.55792    9.31927    3.80896
      H1   -18.84265    9.60110    3.21970
       H   -18.30779    0.69350   -0.48571
       O   -18.27843    0.92689    0.44877
      H1   -17.43225    0.49371    0.66699
       H    -8.51196    8.62831    4.73985
       O    -9.45204    8.90724    4.75988
      H1    -9.37994    9.79599    5.17286
       H   -13.07310   -0.38383    5.08092
       O   -12.87903   -0.09058    5.93708
      H1   -12.19284   -0.63834    6.33942
       H   -12.37053    4.67214    7.54192
       O   -13.03300    5.22106    7.95455
      H1   -13.29071    5.68826    7.04188
       H    -8.63929    6.15894    3.01570
       O    -7.70718    6.16250    2.69099
      H1    -7.35372    5.26255    2.73245
       H   -15.25729    0.27793    0.22522
       O   -15.55086   -0.05099    1.12210
      H1   -14.87592    0.29445    1.70705
       H   -17.48435    3.67145    2.52410
       O   -17.35255    3.55871    1.57970
      H1   -17.75005    2.71228    1.29814
       H   -15.25413    2.26927    6.58431
       O   -16.22402    2.30395    6.45550
      H1   -16.40059    2.90689    7.19090
       H   -13.30920   10.47222   -1.24438
       O   -12.46834   10.71311   -0.76021
      H1   -12.59844   10.25741    0.05874
       H   -13.39345   10.57673    7.50122
       O   -13.47919    9.70985    7.12522
      H1   -13.26547    9.78358    6.19395
       H   -11.15800    1.39038    2.72041
       O   -11.37212    2.11653    3.37136
      H1   -10.55525    1.95087    3.91013
       H   -13.52147    5.34429    1.10454
       O   -13.82140    6.02833    1.77190
      H1   -13.31106    6.75627    1.44221
       H   -18.75274    0.13891    4.50545
       O   -18.80177   -0.34598    3.63764
      H1   -17.87007   -0.69289    3.67414
       H   -16.35050    5.88332    7.82524
       O   -16.53670    5.57725    8.74776
      H1   -15.78179    4.98835    8.94221
       H    -9.50308    3.68417    1.51842
       O   -10.17661    4.12453    1.99458
      H1   -10.60008    3.36894    2.47980
       H   -14.93499    9.93721    4.11249
       O   -14.05343    9.56909    4.26303
      H1   -14.15103    8.77738    3.71972
       H   -16.14414   12.11720    0.50216
       O   -16.15822   11.80073    1.43952
      H1   -15.20719   11.63154    1.64914
       H    -8.33018    3.23345   -0.79785
       O    -8.63026    4.01165   -0.31184
      H1    -8.74892    4.73254   -0.96824
       H   -15.25204    4.32461    3.50934
       O   -14.35403    4.44258    3.81679
      H1   -14.04629    5.09866    3.21040
       H   -13.51037   -2.06432    2.87333
       O   -12.83661   -1.33456    3.02596
      H1   -12.88232   -0.83400    2.16397
       H   -17.01105    9.04215    0.53019
       O   -17.17521    9.22507    1.48171
      H1   -16.66668   10.09105    1.55217
       H   -16.20956    6.95477    2.67377
       O   -16.35365    7.54212    3.42785
      H1   -16.65407    8.33778    2.88048
       H   -10.81436    4.46416    5.48388
       O   -10.78868    4.47476    6.45249
      H1   -10.65289    5.40670    6.62116
       H   -15.74585    0.85074    7.85529
       O   -15.42699    0.80569    8.75410
      H1   -14.66881    0.17678    8.72633
       H   -16.41510    7.38976   -1.81345
       O   -16.69361    8.00014   -1.12218
      H1   -17.11494    7.30612   -0.58000
       H    -7.73239    6.61941    1.08637
       O    -7.92939    6.89826    0.18733
      H1    -7.92188    7.86408    0.20945
       H   -11.25633    8.40400    4.25073
       O   -11.82794    7.76838    3.75039
      H1   -12.44657    7.40053    4.41832
       H   -11.70767    7.79748    0.60101
       O   -12.54125    8.21464    0.75637
      H1   -13.00704    8.17827   -0.10383
       H   -14.04556    3.90917    8.79008
       O   -14.62021    3.49122    9.43517
      H1   -14.78943    2.64936    9.00007
       H   -14.29090    7.04348    5.67440
       O   -13.58222    6.43637    5.46151
      H1   -14.00414    5.80883    4.94549
       H   -13.43131   11.69813    1.63654
       O   -13.81105   10.82786    1.70642
      H1   -13.54331   10.47950    2.52029
       H    -9.41637    7.78961    6.26608
       O    -9.74492    7.10353    6.84893
      H1    -9.04256    7.10550    7.50584
       H   -17.21921    3.80948    8.93048
       O   -17.73758    3.00301    8.55524
      H1   -18.60232    3.40086    8.49941
       H   -10.93662    4.63261    0.51849
       O   -11.43104    5.16645   -0.09819
      H1   -11.52264    4.55230   -0.80258
       H   -14.45479    3.30281   -3.37412
       O   -14.84203    3.89234   -2.72448
      H1   -15.79674    3.64524   -2.92214
       H   -10.11263    6.16232   -1.24855
       O    -9.43165    6.21776   -1.89403
      H1    -8.61893    6.47949   -1.38044
       H   -18.15535    4.99087    0.64138
       O   -18.42851    5.90852    0.44360
      H1   -19.17167    5.99384    1.05473
       H   -12.98219    9.24723   10.41788
       O   -13.78535    8.93543    9.90121
      H1   -13.40725    8.82466    9.04403
       H   -16.72519    3.52964    5.08422
       O   -17.15490    4.00937    4.36557
      H1   -18.09359    3.70596    4.58356
       H   -16.72879   11.82165    4.94045
       O   -16.66311   10.83279    5.06947
      H1   -16.36501   10.82241    5.95577
       H   -16.05166    0.24829    4.05753
       O   -16.20402   -0.63401    4.24086
      H1   -16.49486   -0.64572    5.15627

