180
frame 1 | Written by MDAnalysis XYZWriter (release 2.4.3)
       H   -13.67962   -0.08652  -10.61922
       O   -13.98246    0.76812  -10.28684
      H1   -13.62840    1.35330  -11.04077
       H   -12.89575    3.56423  -11.31335
       O   -13.11072    2.83545  -12.00126
      H1   -13.78269    3.33820  -12.52489
       H    -9.99264   -6.02555  -19.44648
       O   -10.16307   -6.80559  -18.82966
      H1   -10.39094   -7.58442  -19.35988
       H    -3.73235    1.81550  -18.06244
       O    -2.87288    1.90502  -17.60226
      H1    -2.47412    1.12991  -17.92287
       H    -6.55692    2.18083  -17.77719
       O    -7.24455    1.96856  -17.11002
      H1    -7.17386    1.00382  -17.18414
       H    -8.20960    0.77699   -9.31420
       O    -8.40178   -0.13009   -9.65062
      H1    -8.69764   -0.55523   -8.85238
       H   -15.44610    3.40354  -13.00558
       O   -15.76354    2.50098  -13.04347
      H1   -16.11451    2.32976  -12.11682
       H    -6.14377   -1.92871  -10.43092
       O    -6.95785   -1.96608  -10.91282
      H1    -7.50701   -1.18939  -10.63753
       H   -15.47280   -0.54032  -17.70836
       O   -15.74268   -0.23085  -18.61604
      H1   -16.72853   -0.19829  -18.46820
       H    -4.52760    5.15186  -18.58582
       O    -3.59091    5.02340  -18.93979
      H1    -3.14350    4.56485  -18.27372
       H   -16.58787   -3.41171  -15.04303
       O   -15.72228   -3.41877  -15.43279
      H1   -15.84347   -3.84291  -16.27823
       H   -11.45942   -1.15922  -15.40811
       O   -11.87134   -0.80947  -16.23905
      H1   -12.68044   -0.34136  -16.03924
       H    -4.90631    1.42085  -14.78435
       O    -5.85723    1.35651  -14.74381
      H1    -6.16472    1.50638  -15.63542
       H    -6.34446    6.08447  -16.39616
       O    -6.77628    6.58625  -15.69977
      H1    -6.67643    5.95906  -14.92278
       H    -5.41739   -2.01032  -15.03338
       O    -5.24185   -1.30301  -15.67614
      H1    -5.25981   -0.51158  -15.15426
       H    -4.33446   -1.02243  -17.79945
       O    -4.34797   -0.64886  -18.70925
      H1    -5.08297   -1.20544  -19.03627
       H    -8.67276   -6.00942  -12.06071
       O    -8.96184   -6.51083  -12.86730
      H1    -8.71411   -5.99561  -13.63657
       H   -14.87103   -3.22078  -18.43733
       O   -15.48594   -3.92551  -18.21357
      H1   -15.06854   -4.70161  -18.55445
       H   -13.72163    5.24464  -13.61683
       O   -14.54551    4.76778  -13.81780
      H1   -14.37063    4.52406  -14.73638
       H   -16.69341   -0.81999  -12.39004
       O   -16.54382   -1.02549  -13.36096
      H1   -16.93112   -0.25321  -13.83935
       H   -11.53028    7.85341  -15.21152
       O   -11.23908    8.76197  -15.19672
      H1   -11.46948    9.10516  -16.07038
       H   -11.26174   -3.80798  -10.09309
       O   -10.76112   -3.98450  -10.87403
      H1   -11.05811   -4.88821  -11.25165
       H    -9.44167    8.50931  -15.71110
       O    -8.61380    8.43021  -16.25252
      H1    -8.17275    7.64478  -15.84138
       H    -9.78688    0.82081  -10.33553
       O   -10.51973    1.16952  -10.90404
      H1   -11.39618    0.83935  -10.62274
       H    -8.37273   -2.82209  -13.78283
       O    -7.76478   -2.03608  -13.51806
      H1    -7.23994   -2.30330  -12.75678
       H    -7.27519    4.24608  -13.42194
       O    -6.76439    5.07720  -13.50443
      H1    -7.33850    5.67484  -12.97044
       H   -12.30444   -1.82454  -13.77583
       O   -12.43006   -1.02950  -13.20850
      H1   -11.45560   -0.79996  -13.11358
       H   -10.08333   -3.87062  -14.31432
       O    -9.18821   -4.12211  -14.52289
      H1    -9.12969   -3.89454  -15.46427
       H    -3.26850    2.26163  -15.64269
       O    -3.14881    1.70952  -14.83165
      H1    -3.16522    2.46307  -14.24684
       H   -13.33018   -1.69899  -11.95883
       O   -13.94933   -2.10324  -11.31299
      H1   -13.37313   -2.48544  -10.65491
       H   -16.98192    1.37206  -15.82092
       O   -17.31100    1.09208  -14.97497
      H1   -16.80181    1.58583  -14.33572
       H   -12.69235    3.76295  -18.80345
       O   -12.91748    4.72785  -18.97071
      H1   -13.79282    4.85901  -18.50555
       H   -12.82465    3.41015  -16.00056
       O   -13.68085    3.79507  -16.30812
      H1   -14.18638    2.97809  -16.52379
       H   -12.79104    8.02106  -11.95573
       O   -13.04583    7.15616  -12.29138
      H1   -12.41620    6.84777  -12.95138
       H    -8.48784    2.77775  -13.07718
       O    -7.54085    2.66530  -12.77384
      H1    -7.12061    2.19796  -13.55348
       H   -10.41603    0.56053  -16.79272
       O   -10.09399    1.44692  -17.12199
      H1    -9.12334    1.25471  -17.13836
       H   -10.86047    3.10320   -9.06505
       O   -10.41636    3.75177   -9.65176
      H1   -10.66862    3.41752  -10.51673
       H   -14.95078   -3.48066  -12.15722
       O   -15.13260   -4.31033  -12.64870
      H1   -15.29779   -3.92759  -13.49474
       H    -8.74573   -1.86942  -16.43508
       O    -9.40934   -2.58378  -16.68563
      H1    -9.74130   -2.23851  -17.55468
       H    -6.98100    5.00362  -18.23636
       O    -6.21333    5.54997  -18.32294
      H1    -6.58359    6.43801  -18.46413
       H   -12.10110    6.24068  -15.84277
       O   -12.15900    6.10927  -14.88762
      H1   -11.62617    5.28664  -14.82554
       H    -9.12764   -0.80549  -13.39832
       O    -9.66349   -0.01618  -13.40187
      H1    -9.74872    0.20516  -12.44628
       H   -16.84205    2.55666  -17.32405
       O   -15.99895    2.26195  -16.95318
      H1   -15.71934    1.60181  -17.60169
       H    -9.26672    3.41461  -18.20360
       O    -8.92892    4.22345  -18.61191
      H1    -9.56719    4.83205  -18.13970
       H   -11.40498   -3.50908  -12.73840
       O   -11.61392   -3.40324  -13.67285
      H1   -12.07375   -4.19805  -13.99111
       H   -13.31160    0.50074  -13.98548
       O   -13.60732    1.33440  -14.42152
      H1   -14.27342    1.72534  -13.79969
       H    -7.95503    0.09711  -15.22268
       O    -7.79622   -0.51620  -15.97549
      H1    -6.95308   -0.90698  -15.73059
       H   -11.16509    5.92821  -18.33690
       O   -10.62080    6.04516  -17.50738
      H1   -10.47858    6.96879  -17.65652
       H   -10.95009    3.12562  -13.02252
       O   -10.26243    3.46728  -12.49885
      H1   -10.06051    2.70102  -11.88964
       H    -4.33329   -2.83665  -13.80517
       O    -4.99236   -2.64651  -13.12398
      H1    -5.56690   -3.43042  -13.18402
       H   -13.30107   -5.48818  -16.17185
       O   -13.74778   -6.04869  -15.45016
      H1   -13.05926   -6.72461  -15.33091
       H   -12.29235    1.54362  -19.45684
       O   -11.65093    2.23754  -19.13194
      H1   -11.28188    1.76906  -18.32308
       H    -6.52492   -2.72943  -18.13126
       O    -6.62700   -2.23574  -18.96404
      H1    -6.62893   -3.02117  -19.57985
       H   -11.90502    2.18279  -14.80921
       O   -11.27063    2.81945  -15.07005
      H1   -10.75200    2.32985  -15.75084
       H    -4.78773    3.04696  -10.78846
       O    -4.99333    2.26399  -11.34644
      H1    -5.91828    2.39520  -11.41058
       H   -16.48112    5.66075  -18.27482
       O   -16.08178    5.36554  -19.05963
      H1   -16.29758    6.06464  -19.66259
       H   -11.76410   -3.44972  -16.60288
       O   -12.36376   -4.15256  -16.75268
      H1   -13.00125   -3.67651  -17.28613
       H    -6.20952   -4.95587  -16.34539
       O    -6.06333   -4.35902  -17.13957
      H1    -5.15376   -4.06154  -17.08487
       H   -14.91532   -1.63499  -15.93862
       O   -14.82036   -0.67890  -16.04747
      H1   -15.32429   -0.47675  -15.21773
       H    -4.94358    3.39713  -19.02433
       O    -5.17220    2.52679  -18.63746
      H1    -5.35930    2.05366  -19.47414

