180
frame 8 | Written by MDAnalysis XYZWriter (release 2.4.3)
       H    16.68013   -1.08338   11.80243
       O    16.51894   -1.00152   10.83413
      H1    17.29455   -1.56490   10.49989
       H     4.86492    3.51730   17.84951
       O     4.57862    4.38251   17.63476
      H1     4.66257    4.83550   18.46733
       H     9.06744    2.61403   19.87415
       O     8.43082    3.00737   19.20915
      H1     9.07235    3.45198   18.63782
       H    14.08214    0.41861   18.96600
       O    14.85380   -0.00391   18.65336
      H1    15.57961    0.39910   19.17585
       H    14.32819    9.96608   17.94956
       O    14.84210   10.45462   18.56446
      H1    15.76753   10.19961   18.28819
       H    15.35242    4.25777   18.09463
       O    15.59243    4.66351   18.98432
      H1    16.56516    4.90240   18.81397
       H    19.16190   -1.69513   16.45986
       O    18.77769   -1.54719   17.32781
      H1    18.02524   -0.97242   17.18511
       H    17.74325    1.66862   10.33008
       O    16.83759    1.69805   10.72931
      H1    16.55592    0.78483   10.62479
       H     9.06703    0.49721   15.14532
       O     9.68432    0.62201   14.39701
      H1    10.36582    1.14887   14.83973
       H    14.14642    1.31563   11.65586
       O    13.42490    1.23965   10.97349
      H1    13.42157    0.25851   11.14860
       H    13.97547    6.49818   11.34339
       O    14.51291    6.30232   10.58234
      H1    13.78277    5.90299    9.97683
       H     9.37425    4.34551   11.03528
       O    10.36030    4.42288   10.99730
      H1    10.55223    3.44693   11.01865
       H     8.03463   -0.12065   11.49901
       O     8.91906   -0.08718   11.93749
      H1     8.70358    0.58785   12.62488
       H    12.08010   -2.12525   16.23009
       O    12.88189   -2.32195   16.75857
      H1    12.79185   -1.72945   17.49900
       H     9.99846   -3.83533   15.06191
       O     9.86682   -4.82492   14.93154
      H1     9.98350   -5.18828   15.77754
       H     5.98693    0.04499   10.88328
       O     6.54467   -0.70089   11.07894
      H1     6.54074   -0.80769   12.07003
       H    11.44367    7.02505   13.34138
       O    10.55283    7.43610   13.47400
      H1    10.78238    8.35939   13.37152
       H    14.15493    1.54704    9.19928
       O    14.31378    1.25232    8.27433
      H1    14.42068    2.15050    7.81659
       H    15.88888    5.92394   13.78293
       O    16.39754    6.73076   13.77064
      H1    17.18750    6.37476   14.31217
       H     8.97427   -2.40959   18.53670
       O     8.95497   -3.36318   18.28446
      H1     9.87714   -3.54350   18.04971
       H     5.76533   -1.75269   14.17684
       O     6.61254   -2.01141   13.83892
      H1     6.41169   -2.82175   13.40209
       H    14.77632    3.91296   16.00737
       O    14.27564    4.03885   16.80643
      H1    13.88698    4.89385   16.62263
       H    13.27610    8.03483   17.94726
       O    13.17182    8.70792   17.23137
      H1    12.27425    8.98226   17.29873
       H     8.03235    2.13041   14.28327
       O     7.16633    1.94526   13.88222
      H1     6.74096    2.79934   13.73229
       H     7.64115   -4.35356   15.30805
       O     7.22205   -4.09586   16.15800
      H1     7.91245   -3.50924   16.45482
       H    11.57645   -1.28297   11.24705
       O    12.52385   -1.27997   11.08422
      H1    12.84251   -1.73440   11.87914
       H    14.91875    6.87578   15.22151
       O    14.03485    6.54233   15.56379
      H1    13.81855    7.26517   16.18902
       H    19.04489    4.99614   14.61220
       O    18.73363    5.13321   15.52298
      H1    18.37398    4.24106   15.68871
       H     8.45185    6.71367   10.96946
       O     8.17949    6.47903   11.86392
      H1     8.97677    6.59203   12.40082
       H    11.48100    7.66134   10.36122
       O    10.94633    7.00437    9.87158
      H1    10.91740    6.31638   10.56263
       H    13.40487    7.21337   13.91666
       O    13.31007    7.53310   13.01191
      H1    13.44894    8.48309   13.09674
       H    17.12174   -0.27963   14.41174
       O    17.32382    0.58249   14.69953
      H1    18.09740    0.72781   14.17812
       H    17.26283    2.38741   16.09342
       O    17.82714    2.88498   16.69942
      H1    18.50765    2.20129   16.82740
       H    11.49791    4.94661   14.43706
       O    12.09094    5.03371   13.69103
      H1    11.55406    4.46908   13.19023
       H     7.38271    8.63453   16.98723
       O     8.23638    9.17312   16.94642
      H1     8.75516    8.78892   17.60823
       H    13.90690   -1.94005   15.15490
       O    14.04452   -1.31374   14.43289
      H1    14.06006   -0.52345   14.95718
       H    14.42154    1.98880   16.26015
       O    14.67725    1.04755   16.19207
      H1    14.87357    0.85180   17.12570
       H     6.44746    1.67941   17.47144
       O     6.19999    1.99575   18.34791
      H1     7.04025    2.39816   18.65796
       H    12.08287   -3.74886   17.33455
       O    11.38900   -4.33355   17.66847
      H1    11.83816   -4.92350   18.31539
       H    11.60597   11.64130   15.75194
       O    11.09756   11.15564   16.37819
      H1    10.51397   10.64398   15.82449
       H    16.04790    1.64342   12.66167
       O    15.27708    1.60110   13.20959
      H1    15.69459    1.31697   14.04185
       H    11.63162    1.31208   10.77818
       O    10.74902    1.47398   10.46053
      H1    10.27793    0.87866   11.09499
       H     5.61230    1.00293   13.39660
       O     4.67092    0.85453   13.31242
      H1     4.50595    0.21456   14.03562
       H     9.99707    6.41428   15.29966
       O     9.84675    5.48511   15.46056
      H1     8.89240    5.46908   15.34081
       H    10.62208    4.85201   18.52659
       O    10.71572    4.18125   17.74924
      H1    10.30934    4.77395   17.09982
       H    16.34273   -3.56769   18.67448
       O    16.44263   -3.80282   17.75919
      H1    16.78283   -3.04099   17.34292
       H    11.76610    2.86123   16.53988
       O    11.55906    2.14664   15.84649
      H1    12.48387    1.95185   15.45088
       H     7.34470    1.10209   15.52740
       O     7.74964    0.62340   16.26794
      H1     7.22048   -0.14840   16.48110
       H     6.23635   -1.47961   17.74071
       O     6.11867   -1.57980   16.79115
      H1     6.29286   -2.50437   16.63723
       H     6.20351    4.67033   13.53077
       O     5.73238    4.12335   12.82015
      H1     6.46778    3.89376   12.22653
       H     7.80267    2.64325   10.29313
       O     7.57368    3.36811   10.90112
      H1     7.20527    4.02426   10.30024
       H    16.77748   -2.49323   13.89539
       O    16.62664   -1.58975   13.58574
      H1    15.70430   -1.52370   13.85346
       H     9.10117   -3.25360   12.53644
       O     9.96336   -2.80924   12.41463
      H1     9.71053   -1.85689   12.25072
       H    18.39117    3.91592   12.40689
       O    18.66151    4.82646   12.66285
      H1    17.80868    5.32819   12.63006
       H     9.79892    0.15354   18.53875
       O     9.32618   -0.42842   19.14493
      H1     8.48473    0.03895   19.11110
       H    10.42258   -0.95654   15.10229
       O    10.65757   -1.87333   15.03387
      H1    10.38746   -2.16362   14.12624
       H     5.59845    5.87577   15.03991
       O     6.10830    5.17617   15.42661
      H1     5.66915    5.21308   16.30116
       H    18.29311    6.04697   17.39296
       O    17.96540    6.03794   18.30029
      H1    18.67759    5.44354   18.65694
       H    10.64562    8.96424   18.42783
       O    10.56009    8.09103   17.96779
      H1    10.74782    7.51015   18.73980
       H    14.64051    3.54365   13.46604
       O    14.76168    4.42927   13.84684
      H1    13.78273    4.72853   13.93575

