180
frame 2 | Written by MDAnalysis XYZWriter (release 2.4.3)
       H    -8.89208   11.81630  -10.64956
       O    -8.18729   11.24066  -10.30419
      H1    -7.55732   11.17574  -11.05069
       H    -2.84965   17.67922  -12.42379
       O    -3.68225   17.82193  -12.90925
      H1    -3.54845   17.21768  -13.67183
       H    -5.36036   19.09745   -8.08962
       O    -4.37658   19.19581   -8.33508
      H1    -4.14997   19.85037   -7.64514
       H   -17.90903   16.43311  -17.54210
       O   -17.00217   16.53694  -17.87456
      H1   -16.97611   16.03162  -18.69525
       H    -4.01350   17.28222  -19.40662
       O    -5.01850   17.18673  -19.34507
      H1    -5.16916   17.66842  -18.49041
       H    -8.63123   19.11706  -18.95443
       O    -9.00477   19.79991  -19.47897
      H1    -9.87101   19.42021  -19.57928
       H    -9.18423   13.20230  -14.43301
       O    -9.70429   12.57722  -14.97972
      H1   -10.52542   12.37615  -14.43026
       H   -16.06654   15.39329  -13.68214
       O   -15.90339   15.54640  -12.72546
      H1   -16.32505   14.78947  -12.32459
       H    -3.46877   18.26532  -17.04022
       O    -4.36250   18.13310  -16.60646
      H1    -4.58969   19.06433  -16.45666
       H   -13.68621   20.21436   -9.00839
       O   -14.56626   19.88312   -8.72107
      H1   -14.62464   18.98335   -9.19270
       H   -12.40633   10.31250  -11.90662
       O   -12.55765   10.26252  -10.96101
      H1   -12.52234   11.20219  -10.66804
       H   -15.31779   16.97791   -9.61324
       O   -14.45239   17.36241   -9.72717
      H1   -14.24390   17.20189  -10.68502
       H   -14.02902   16.05149  -12.35363
       O   -13.24648   16.57464  -12.01425
      H1   -13.34700   17.34492  -12.58200
       H    -3.59050   15.47927  -12.87611
       O    -3.84779   14.65810  -12.49726
      H1    -4.30184   14.33432  -13.29686
       H   -17.25978   19.18131   -7.11590
       O   -17.32417   18.52008   -6.40727
      H1   -18.19312   18.64113   -5.94903
       H   -12.95813   18.16270  -15.64110
       O   -13.12130   18.19768  -16.58363
      H1   -12.39079   17.66511  -16.89376
       H   -12.60084   19.48730  -13.73707
       O   -12.30342   18.64162  -14.11226
      H1   -11.39716   18.69935  -13.76589
       H    -7.33624   19.35295   -8.33772
       O    -7.04658   18.72820   -7.64643
      H1    -7.44805   17.90765   -7.96532
       H    -8.05663    9.92289  -16.61258
       O    -8.01290   10.82947  -16.92632
      H1    -8.33093   11.28997  -16.16018
       H   -10.88853    9.00880  -17.82521
       O   -11.36663    9.49775  -17.12569
      H1   -10.83535   10.27298  -16.95289
       H   -15.64292   11.59793  -14.97853
       O   -16.39775   11.19859  -14.49017
      H1   -16.20261   11.34273  -13.55824
       H   -16.50141   13.57801  -16.82399
       O   -16.56775   12.99223  -17.57650
      H1   -17.23616   12.36030  -17.18486
       H   -10.97360   16.90352   -6.31421
       O   -10.13688   17.28302   -5.97703
      H1   -10.15039   16.90752   -5.10013
       H   -18.83657   17.12814  -12.77477
       O   -17.98405   17.61885  -12.66662
      H1   -17.39953   16.88593  -12.62486
       H   -10.13531   13.89025  -10.33543
       O   -10.43877   13.01942   -9.98658
      H1   -10.11159   13.14067   -9.03512
       H    -9.90827   16.05391  -11.57611
       O    -9.35555   15.36679  -11.21028
      H1    -8.90234   15.81341  -10.49365
       H   -13.41283   14.14012  -19.61393
       O   -12.66864   14.55612  -19.18986
      H1   -13.24129   15.00055  -18.57249
       H    -8.44820   19.49018  -15.61916
       O    -7.49828   19.25694  -15.73866
      H1    -7.41546   18.71127  -14.99175
       H   -12.53801   15.80429   -7.84104
       O   -12.23394   16.65733   -7.55331
      H1   -12.96097   16.88291   -6.89904
       H    -8.20372   14.36066  -12.87063
       O    -7.78650   14.30637  -13.75204
      H1    -7.67268   15.27820  -13.86757
       H   -15.06563   19.25651  -16.86839
       O   -16.01546   18.98837  -16.74245
      H1   -16.13545   18.07139  -17.08566
       H   -11.10682   15.75809  -18.17646
       O   -11.03037   16.69993  -17.85910
      H1   -10.08200   16.94340  -17.91401
       H    -8.21301   17.95450  -16.94934
       O    -8.39276   17.53054  -17.78099
      H1    -8.27327   16.60463  -17.49709
       H   -16.34750   14.98145   -8.15233
       O   -16.66730   14.60219   -8.99301
      H1   -17.52439   15.07644   -9.04990
       H    -4.66402   14.71874  -10.70409
       O    -4.92342   14.73059   -9.78634
      H1    -4.98176   13.76424   -9.59966
       H    -7.15787   15.32891   -8.89369
       O    -7.61955   16.12771   -9.19810
      H1    -7.15175   16.36712  -10.00909
       H    -3.90811   12.75282  -14.54363
       O    -4.11160   13.52737  -15.06531
      H1    -4.52214   13.14941  -15.92017
       H   -11.26381   16.25021  -14.32166
       O   -11.42076   15.45460  -13.74287
      H1   -12.17222   15.70558  -13.18313
       H   -12.72434   12.30710  -14.13229
       O   -11.94746   12.40877  -13.56182
      H1   -11.86148   13.37263  -13.64680
       H   -17.00794   19.28946  -15.42323
       O   -17.72378   19.40661  -14.73603
      H1   -17.52579   18.64193  -14.12825
       H   -13.76718   11.18943  -15.60763
       O   -13.75358   12.13006  -15.47744
      H1   -13.06572   12.47603  -16.02287
       H   -11.76443   17.21678   -8.98633
       O   -11.57431   17.63675   -9.89254
      H1   -12.29342   17.16512  -10.34801
       H    -9.12981   14.05539   -6.98451
       O    -9.88745   14.46607   -7.45108
      H1    -9.94855   15.30270   -6.94252
       H    -8.14515   14.15245  -16.69881
       O    -8.20839   14.71968  -17.48225
      H1    -7.25445   14.80574  -17.78879
       H   -17.59781   17.50814  -10.75048
       O   -17.40546   17.31936   -9.87378
      H1   -17.86185   18.02813   -9.43646
       H    -6.83899   12.74194  -13.00337
       O    -6.42956   12.01191  -12.48932
      H1    -5.91129   11.42475  -13.10638
       H    -9.57454   18.85940  -12.39580
       O   -10.14972   18.07039  -12.40596
      H1   -10.46854   18.03540  -11.45132
       H   -13.67351   12.91660   -9.61273
       O   -13.22499   12.96805  -10.47541
      H1   -12.28506   13.14793  -10.28679
       H   -10.54394   13.06272  -16.46883
       O   -11.13915   12.80305  -17.15784
      H1   -10.65690   13.13502  -17.91900
       H   -19.46495   19.47626  -17.17712
       O   -19.80009   19.07111  -16.42323
      H1   -19.02180   19.02075  -15.89929
       H   -12.85699   13.50554   -6.28226
       O   -12.58424   13.51083   -7.23660
      H1   -11.65923   13.93526   -7.15014
       H   -18.12816   13.00222  -11.75664
       O   -17.64851   13.77251  -11.48702
      H1   -16.88153   13.36654  -11.06479
       H    -7.12154   17.44522  -13.00895
       O    -7.72151   17.21147  -13.78888
      H1    -8.63697   17.17749  -13.40137
       H   -16.07326   11.28164  -11.26929
       O   -15.58650   11.72075  -11.95189
      H1   -14.74953   11.92263  -11.49012
       H    -3.73990   15.38785  -15.14170
       O    -3.25149   16.18117  -14.89582
      H1    -3.76506   16.78576  -15.43913
       H    -5.65986   15.73410  -18.33134
       O    -5.41369   14.94400  -17.76536
      H1    -5.67209   14.18360  -18.25060
       H   -14.28896   19.28169   -6.95142
       O   -13.99166   18.63331   -6.29284
      H1   -14.87109   18.30055   -6.01992
       H    -6.17642   18.68656  -11.30313
       O    -6.31144   17.75329  -11.60382
      H1    -5.37052   17.56200  -11.91187
       H   -17.56824   14.49785  -15.34157
       O   -16.70705   14.91050  -15.53824
      H1   -17.01994   15.56578  -16.18730
       H    -9.94883   18.84464   -5.81612
       O    -9.84567   19.80609   -5.55792
      H1    -8.93263   19.93373   -5.64865

