180
frame 7 | Written by MDAnalysis XYZWriter (release 2.4.3)
       H   -14.42076  -18.32991   -5.47608
       O   -13.52517  -18.03922   -5.81686
      H1   -13.37158  -17.06409   -5.65597
       H   -17.38959  -15.78973    7.26787
       O   -18.04825  -15.76894    6.51673
      H1   -18.37150  -14.86944    6.65923
       H   -16.70593  -16.10599    5.48150
       O   -16.25107  -16.73594    4.89195
      H1   -16.98482  -17.42106    4.79190
       H    -9.40571  -13.65051   -0.65384
       O    -8.84826  -12.90421   -0.23971
      H1    -9.16796  -13.04184    0.70398
       H    -8.03242  -12.89065    3.11243
       O    -8.71966  -13.55460    2.86710
      H1    -8.33707  -14.36502    3.17076
       H   -12.30350  -14.01671    0.75789
       O   -12.99839  -13.62584    1.35900
      H1   -12.33514  -13.07425    1.80265
       H   -13.31790  -17.65479    4.49094
       O   -12.79923  -17.47269    5.27743
      H1   -13.26554  -16.69438    5.60582
       H   -11.18451  -14.18112    4.43912
       O   -10.76215  -13.40195    4.84573
      H1    -9.88280  -13.44696    4.42642
       H   -12.20167  -14.45916    6.61219
       O   -12.49553  -15.19275    7.17973
      H1   -13.17018  -14.82108    7.75110
       H   -11.86554  -11.95652   -2.78908
       O   -11.84114  -12.69185   -3.43904
      H1   -12.53011  -13.27308   -3.17372
       H   -10.82415  -13.89765   -2.60415
       O   -10.19537  -14.63450   -2.40593
      H1   -10.72845  -15.22330   -1.85665
       H   -14.77825  -18.33721    2.55862
       O   -14.33148  -19.03387    3.05545
      H1   -14.86931  -19.03506    3.87668
       H   -17.86064  -13.05124   -3.84465
       O   -17.73636  -13.05397   -2.89896
      H1   -18.57241  -12.73962   -2.51353
       H   -16.66211  -13.65184    8.62838
       O   -17.63397  -13.62383    8.64733
      H1   -17.88933  -12.76646    8.20027
       H   -13.88585   -8.36775   -1.75327
       O   -14.13016   -9.27721   -1.56123
      H1   -13.33808   -9.78146   -1.30143
       H   -17.18493  -10.09530    7.84077
       O   -17.67851  -10.88905    7.58824
      H1   -18.59700  -10.69773    7.59600
       H   -15.91678   -9.70070    1.42272
       O   -15.09851   -9.18772    1.33255
      H1   -15.21378   -9.08549    0.37459
       H   -14.94792  -14.27675    9.43791
       O   -14.93475  -14.43955    8.48096
      H1   -15.12643  -15.41632    8.40095
       H   -11.33901  -16.69616    4.55803
       O   -10.49473  -16.35645    4.19810
      H1   -10.02689  -16.76250    4.98795
       H   -10.92513  -16.19829   -5.08494
       O   -11.53860  -15.73277   -5.63380
      H1   -11.20045  -14.82898   -5.46658
       H   -18.05290  -11.66402   -5.45536
       O   -17.23862  -11.49736   -5.03475
      H1   -17.54368  -11.10738   -4.17208
       H    -9.94280  -14.96431    8.98846
       O   -10.45318  -15.81916    8.99903
      H1   -11.21998  -15.48942    8.50643
       H    -9.52356  -15.86446   -3.32785
       O    -9.38238  -16.63879   -3.94432
      H1    -8.80561  -16.23339   -4.59171
       H   -16.30003  -17.44826    8.54554
       O   -15.88468  -16.83191    7.92153
      H1   -15.92908  -17.23529    7.06564
       H   -16.23569   -9.40732    5.00925
       O   -15.86177   -8.91079    4.23618
      H1   -15.19036   -9.50978    3.94863
       H   -15.49368  -12.55814   -0.76460
       O   -15.37337  -12.29373   -1.68673
      H1   -16.22829  -12.61239   -2.05378
       H   -17.60301  -18.22113    1.82129
       O   -18.42044  -17.78056    1.90837
      H1   -18.13011  -16.97018    1.48395
       H   -17.96597  -15.34953   -2.66032
       O   -17.72026  -16.20492   -3.03605
      H1   -16.83739  -16.29320   -2.60938
       H   -10.82398  -11.72364    1.92732
       O   -11.44168  -12.03948    2.60335
      H1   -10.90125  -12.41722    3.35129
       H   -18.00651  -11.25425    1.01298
       O   -17.24854  -10.96898    1.56308
      H1   -17.70789  -11.05317    2.44021
       H   -10.64425  -11.14429   -0.54883
       O   -11.15816  -10.80781   -1.31837
      H1   -10.60939  -10.08122   -1.60692
       H    -8.93134  -16.73596    2.82835
       O    -8.62083  -16.92502    1.94014
      H1    -7.63724  -16.76099    2.04727
       H   -13.33364  -14.32998    2.89514
       O   -13.52655  -14.82707    3.66509
      H1   -14.05153  -14.27757    4.21245
       H   -14.23585  -14.13295   -4.22992
       O   -13.87896  -14.64198   -3.47816
      H1   -14.57192  -14.59959   -2.83118
       H   -12.32870  -11.13694    6.60951
       O   -12.59464  -11.95334    6.15949
      H1   -11.93077  -11.91761    5.48784
       H   -16.14210  -15.60596   -0.37622
       O   -15.84950  -15.66026   -1.30933
      H1   -15.73714  -16.59530   -1.40903
       H   -18.25235  -19.23517    6.07163
       O   -18.19009  -18.95010    5.15088
      H1   -19.04335  -18.56981    4.96026
       H    -9.24880  -12.65809    7.50584
       O    -9.19485  -13.59647    7.26935
      H1    -9.74920  -13.66596    6.47463
       H   -14.21340  -12.23373    5.12883
       O   -14.93594  -12.77025    4.70411
      H1   -15.56937  -12.69997    5.46153
       H   -15.13015  -18.07868    0.62609
       O   -15.17830  -18.86997    0.15627
      H1   -15.52069  -18.64771   -0.73851
       H   -13.18478  -17.73338    0.08106
       O   -12.86787  -17.47447    1.01126
      H1   -12.19410  -18.11461    1.17833
       H   -11.23088  -16.01372    0.81875
       O   -10.45117  -15.60399    0.41696
      H1    -9.67812  -15.91904    0.98816
       H   -10.09688  -19.33302    0.91067
       O   -10.63865  -18.93194    1.59641
      H1   -10.01815  -18.14344    1.75256
       H   -18.01566  -12.80088    3.39924
       O   -18.07075  -12.03127    3.91814
      H1   -18.92300  -12.15195    4.28747
       H   -11.67566   -8.97378    5.68347
       O   -12.05557   -8.72290    4.81816
      H1   -12.64391   -9.45102    4.59233
       H   -12.81433  -10.75585    2.75673
       O   -13.50913  -10.27542    3.25318
      H1   -13.99080   -9.98106    2.43536
       H   -16.83142  -18.53487   -5.16928
       O   -15.96407  -18.84765   -4.84461
      H1   -16.28099  -19.61454   -4.38656
       H   -13.74572  -19.40951    9.47864
       O   -13.63295  -18.44685    9.36625
      H1   -12.69172  -18.35120    9.28219
       H   -14.49960  -17.75846   -2.67425
       O   -15.45311  -17.94848   -2.39448
      H1   -15.88233  -18.07243   -3.26412
       H   -16.11876   -9.63592   -3.13946
       O   -16.65231  -10.20385   -2.59710
      H1   -15.98649  -10.73093   -2.15804
       H    -8.16370  -17.71486    5.21122
       O    -8.68166  -17.30076    5.94630
      H1    -9.29321  -17.96533    6.23806
       H   -14.54777  -16.66576    2.25117
       O   -15.45491  -16.75756    1.89792
      H1   -15.95754  -16.77893    2.78719
       H   -14.63847  -12.98552    1.12060
       O   -15.62916  -13.06697    0.88522
      H1   -15.88480  -12.27003    1.33211
       H   -16.98643  -13.97049    1.76997
       O   -17.70529  -14.17313    2.39707
      H1   -17.17408  -14.61797    3.10705
       H   -10.67380  -19.54125    6.35008
       O   -10.71888  -18.79296    6.91128
      H1   -11.58922  -18.48210    6.58073
       H   -18.00924  -16.72842   -4.82613
       O   -18.17561  -17.27488   -5.61148
      H1   -17.47358  -17.00818   -6.24621
       H   -19.35914  -16.76818    3.68208
       O   -19.59704  -15.91345    4.01772
      H1   -19.23373  -15.86879    4.90309
       H   -12.97651  -16.52200   -3.49088
       O   -12.85794  -17.22258   -2.84945
      H1   -12.64845  -17.82796   -3.59967
       H   -15.47976  -12.41155   -5.51263
       O   -14.64071  -12.89325   -5.62269
      H1   -14.68773  -13.38746   -6.47367
       H    -8.31484  -19.47923   -3.58828
       O    -9.01151  -19.12479   -2.99764
      H1    -9.19806  -18.26058   -3.40432

