180
frame 12 | Written by MDAnalysis XYZWriter (release 2.4.3)
       H     5.78058    7.74658  -15.43202
       O     5.50081    7.27894  -14.63320
      H1     4.89265    7.97785  -14.32524
       H     1.61191    3.51618  -10.59178
       O     2.05497    4.33419  -10.61822
      H1     1.23535    4.87198  -10.57746
       H    -2.09537    0.50193  -12.01272
       O    -2.82109   -0.02469  -11.56597
      H1    -3.52240    0.64731  -11.57953
       H    -2.02429   -3.03218  -12.31549
       O    -2.64110   -2.52360  -12.90358
      H1    -2.52383   -1.59995  -12.56580
       H    -4.47314    0.11731  -17.06938
       O    -4.46775   -0.83192  -16.70656
      H1    -3.57841   -0.92122  -16.43484
       H    -7.16296   -0.04939  -18.39209
       O    -7.66510   -0.35250  -17.56463
      H1    -8.46641   -0.66630  -18.00726
       H    -3.78742    7.44801  -18.76075
       O    -3.55218    6.61715  -19.22274
      H1    -3.07163    6.01818  -18.61518
       H    -3.70055    3.48713  -12.40790
       O    -3.26856    3.82097  -13.24224
      H1    -4.04526    3.75585  -13.85879
       H    -2.78755    5.39365  -12.60562
       O    -2.68892    6.06872  -11.97104
      H1    -3.03393    6.85287  -12.36660
       H    -7.49982    1.51659  -15.31823
       O    -7.96960    2.28107  -14.96752
      H1    -8.93602    2.05435  -15.02531
       H     3.67043    4.19114  -11.52681
       O     4.56310    3.79763  -11.80167
      H1     4.98013    4.46677  -12.35068
       H    -6.42506    3.35946  -14.35591
       O    -5.80024    4.13896  -14.26968
      H1    -5.50709    3.99281  -13.35394
       H     3.00360   -1.80988  -11.52851
       O     2.95826   -2.01305  -12.45258
      H1     3.83644   -1.85996  -12.82426
       H    -1.42042    5.58604  -10.64794
       O    -0.75018    4.88105  -10.50816
      H1    -0.55640    4.65034  -11.46169
       H    -4.83116    5.65768  -15.47394
       O    -4.02109    6.08094  -15.27901
      H1    -4.19488    6.88921  -15.83397
       H    -6.57779   -3.16838  -15.54803
       O    -5.88890   -3.29891  -16.22822
      H1    -5.48720   -2.38900  -16.20639
       H     5.44358   -0.41924  -13.32222
       O     5.43921   -1.39324  -13.45558
      H1     6.09152   -1.78606  -12.82178
       H     0.58309   -1.89009  -11.90780
       O     0.35302   -1.94351  -10.99077
      H1     1.30195   -2.11054  -10.55957
       H     1.73593    0.52830  -10.13968
       O     2.60019    0.90200  -10.45648
      H1     2.36144    0.98523  -11.39653
       H    -1.24033    1.97139  -11.31077
       O    -1.40274    2.27553  -10.39872
      H1    -1.33823    3.28424  -10.38544
       H    -4.43992    9.13646  -16.66255
       O    -4.46778    9.09289  -15.71994
      H1    -5.43636    9.31756  -15.55994
       H    -0.14202   -0.59418   -9.26827
       O     0.15195    0.39832   -9.23886
      H1    -0.45291    0.87012   -9.79643
       H    -0.24539    3.03044  -17.87433
       O    -0.37535    3.51889  -17.05127
      H1    -0.97931    2.95761  -16.51336
       H    -8.45656    6.85396  -14.73320
       O    -7.48210    6.77646  -14.71383
      H1    -7.42472    5.80699  -14.69351
       H     6.06049    0.29878  -16.23915
       O     5.13211    0.31446  -15.90194
      H1     5.15279    0.97960  -15.20636
       H     2.21189    1.55719  -14.01865
       O     1.88613    1.01536  -13.32404
      H1     2.20082    0.13790  -13.56872
       H     0.95013   -3.94792  -18.10336
       O     1.68610   -3.47543  -18.46278
      H1     1.31910   -3.28053  -19.34708
       H     4.06846    4.84353  -16.88122
       O     3.80335    5.29911  -16.05385
      H1     4.69802    5.50628  -15.73515
       H    -2.16466   -2.00455  -14.82491
       O    -2.12759   -1.19508  -15.39672
      H1    -1.17696   -1.22577  -15.66349
       H    -6.37606   -0.50832  -14.05657
       O    -5.84375    0.29036  -14.27346
      H1    -5.11415   -0.01363  -14.83658
       H     3.12579    4.21099  -19.20515
       O     2.76728    3.45815  -18.72756
      H1     1.79212    3.59628  -18.72335
       H     7.20098    4.70956  -16.35045
       O     6.71530    5.43106  -16.81118
      H1     7.43900    6.06535  -17.09137
       H     1.29557    6.88377  -19.91831
       O     2.09988    6.47844  -19.60072
      H1     2.11568    6.70740  -18.65393
       H     1.74958    7.99701  -17.25102
       O     1.32560    7.14786  -16.91661
      H1     2.11157    6.75923  -16.49818
       H     8.52510    3.70058  -14.47478
       O     7.73221    3.35478  -14.89587
      H1     7.14931    3.83906  -14.31655
       H    -6.32105    6.43267  -17.65685
       O    -6.87846    7.20664  -17.40877
      H1    -6.85577    7.07849  -16.41501
       H     1.37618    3.26853  -15.74736
       O     2.23030    3.19091  -15.28190
      H1     2.64790    4.00704  -15.61818
       H     4.48657    2.97717  -13.31351
       O     4.77705    2.67847  -14.16684
      H1     4.10640    2.83760  -14.81738
       H    -3.04609    1.77416  -18.65901
       O    -2.55560    1.53260  -19.51471
      H1    -2.65884    0.54182  -19.58370
       H    -0.37449   10.93502  -13.06546
       O    -0.65484   10.28494  -13.76491
      H1    -0.37566    9.52131  -13.24593
       H    -6.80035    3.96773  -17.54475
       O    -5.85881    4.23192  -17.69740
      H1    -5.72026    4.14239  -18.67237
       H    -2.39144   10.55952  -13.97240
       O    -3.37263   10.75046  -13.84513
      H1    -3.66097   10.13797  -14.58182
       H    -0.43010    7.81580  -16.41690
       O    -1.13837    8.26243  -15.89826
      H1    -0.71088    8.99544  -15.44289
       H    -8.36318    2.87517  -16.44319
       O    -8.54890    3.23487  -17.35323
      H1    -8.84524    4.16847  -17.12684
       H    -3.70732    9.63801  -12.59469
       O    -3.77813    8.85588  -12.01451
      H1    -3.99230    9.23163  -11.16862
       H     6.56319    6.01393  -13.74994
       O     6.67111    5.29062  -13.05597
      H1     7.25831    5.72009  -12.44591
       H     1.84279   10.21504  -19.50853
       O     1.54164    9.73022  -18.71634
      H1     0.76956   10.31883  -18.47458
       H    -4.29675    4.57095  -10.74452
       O    -4.07182    3.69056  -10.54109
      H1    -4.95201    3.33027  -10.51437
       H     0.29393    7.41366  -13.23997
       O    -0.13717    7.89296  -12.43650
      H1    -0.96280    7.36451  -12.26071
       H    -5.18432    9.12230  -19.10583
       O    -4.47932    9.14865  -18.46461
      H1    -3.81399    9.53491  -19.00526
       H    -1.37008    4.39988  -13.21513
       O    -0.49282    4.07567  -13.13454
      H1    -0.50881    3.13981  -13.19888
       H    -2.41411    2.99991  -14.77827
       O    -1.96661    2.25522  -15.27405
      H1    -2.60620    2.06379  -16.02608
       H     7.26564    4.48798  -18.29991
       O     7.45621    3.84674  -19.06277
      H1     8.42108    3.63254  -18.86403
       H     1.42051   -0.21112  -16.75862
       O     0.92375   -1.00546  -16.48957
      H1     1.18338   -1.59159  -17.20060
       H    -5.58565    1.27030  -12.73850
       O    -5.67098    1.78396  -11.90408
      H1    -6.59599    1.66054  -11.67270
       H    -1.12631    1.52529  -13.99447
       O    -0.93864    1.35357  -13.02612
      H1     0.00033    1.04879  -13.02933
       H     3.82970    0.76683  -17.02722
       O     3.16380    0.83722  -17.79487
      H1     3.22976    1.80293  -17.99627
       H    -3.33010    4.99873  -16.77307
       O    -2.83792    4.42261  -17.38165
      H1    -1.94660    4.37553  -17.05048
       H    -4.49884    2.82262  -17.35287
       O    -4.44775    1.84929  -17.37411
      H1    -5.11258    1.71883  -18.12367
       H     1.04496   -1.99330  -14.78493
       O     0.82662   -2.55552  -14.02377
      H1     1.68330   -2.70328  -13.60427

