180
frame 6 | Written by MDAnalysis XYZWriter (release 2.4.3)
       H   -19.28702  -10.05803  -13.41551
       O   -19.25584   -9.20179  -13.82062
      H1   -18.35934   -9.12380  -14.21619
       H   -11.67181   -6.39072  -18.51419
       O   -11.10413   -6.97647  -18.07320
      H1   -11.33829   -7.80630  -18.47718
       H   -12.10319  -14.75693  -13.51211
       O   -11.70113  -15.22739  -14.31803
      H1   -12.25182  -16.00550  -14.44376
       H   -16.32476   -3.54098  -14.96858
       O   -17.18866   -3.36698  -15.43425
      H1   -17.79821   -3.26854  -14.61618
       H   -12.45372  -10.10211  -10.16030
       O   -12.63927   -9.59999  -10.94276
      H1   -13.37326  -10.07167  -11.42983
       H   -13.09314   -1.53901  -16.04809
       O   -13.26371   -1.06342  -16.83519
      H1   -14.12416   -0.64660  -16.69267
       H   -19.76641   -2.20702  -13.68087
       O   -18.93525   -2.54119  -13.31294
      H1   -18.36452   -1.74250  -13.28769
       H   -10.30628   -6.00775  -13.87936
       O   -10.70662   -6.85554  -13.61611
      H1   -11.21194   -7.04667  -14.42235
       H   -11.20406   -7.19900  -11.66727
       O   -11.08160   -7.20523  -10.71127
      H1   -11.47251   -8.12031  -10.43602
       H   -14.86332   -3.28359  -18.05225
       O   -15.76923   -3.41000  -18.28903
      H1   -16.25188   -3.91266  -17.56981
       H   -11.55659  -10.37754  -18.38396
       O   -12.05708   -9.79779  -18.96243
      H1   -12.87883   -9.71283  -18.43846
       H   -17.17363  -16.52670  -18.99844
       O   -17.40008  -15.88507  -18.31667
      H1   -17.71185  -15.08391  -18.82859
       H   -19.56935  -14.41815  -10.29064
       O   -19.72811  -13.47495  -10.37245
      H1   -18.78839  -13.22470  -10.23340
       H   -17.22089   -7.50428   -9.15603
       O   -17.12722   -8.21948   -9.87140
      H1   -16.26945   -8.67278   -9.57558
       H   -18.57276   -7.22628  -17.94749
       O   -18.89430   -7.52276  -17.06440
      H1   -18.45689   -8.37901  -16.98156
       H    -9.15874  -11.19339  -18.48145
       O    -9.48489  -10.56378  -17.79375
      H1    -9.05618   -9.68716  -18.05415
       H   -12.03559   -3.77974  -11.17200
       O   -11.84591   -4.19085  -12.02046
      H1   -12.58674   -4.81472  -12.01823
       H   -11.66702  -16.93636  -16.94782
       O   -12.61543  -17.03461  -17.09671
      H1   -12.65573  -16.84195  -18.05429
       H   -16.56644   -5.64223   -7.73410
       O   -17.10163   -6.45402   -7.79485
      H1   -17.99203   -6.07012   -7.81522
       H   -13.88350  -17.43287  -14.42485
       O   -13.00938  -17.61962  -14.07681
      H1   -13.25156  -17.51972  -13.12482
       H    -9.05520   -8.52720  -13.17017
       O    -8.75672   -9.31718  -12.69937
      H1    -9.65660   -9.70605  -12.52069
       H   -15.95374  -13.48267  -13.53172
       O   -16.20481  -13.70026  -12.59097
      H1   -15.38401  -14.06353  -12.18389
       H   -13.36315   -0.93058  -19.84265
       O   -13.17905   -1.88153  -19.44422
      H1   -13.31774   -1.70269  -18.46893
       H   -16.75918  -13.09015  -15.69085
       O   -15.86926  -13.18061  -15.20885
      H1   -15.41515  -13.81046  -15.83428
       H    -9.83257   -4.10822  -14.44273
       O    -8.97257   -4.50783  -14.45435
      H1    -8.68470   -4.39498  -15.38625
       H   -13.75333  -12.07416  -14.95168
       O   -12.95221  -11.91805  -15.48220
      H1   -12.53994  -11.47921  -14.70094
       H   -10.58969  -11.76314  -11.60077
       O   -10.81841  -11.10820  -12.25218
      H1   -11.49490  -10.51451  -11.80076
       H   -16.79883   -8.70624  -12.54385
       O   -16.89132   -7.74954  -12.58547
      H1   -17.16587   -7.58528  -11.67663
       H   -14.18153   -9.81310   -9.79918
       O   -14.94885   -9.37708   -9.40365
      H1   -14.73085   -8.48523   -9.64728
       H   -12.70000  -10.76883   -7.70245
       O   -12.25280  -10.74216   -8.59467
      H1   -11.33893  -10.74381   -8.22809
       H   -13.97538  -12.33399  -12.35194
       O   -14.22672  -11.35566  -12.51920
      H1   -15.18833  -11.48303  -12.51515
       H    -8.34279  -13.21323  -15.61970
       O    -8.62206  -13.56469  -16.48024
      H1    -9.57756  -13.31613  -16.47155
       H   -12.30716  -14.23730  -18.30957
       O   -13.00526  -14.77578  -18.76616
      H1   -13.38553  -14.15500  -19.39973
       H   -18.29407   -9.40843  -10.09423
       O   -18.57743  -10.32727   -9.96962
      H1   -19.52772  -10.30825  -10.08760
       H   -17.94237  -14.21496   -8.32907
       O   -17.32707  -13.80578   -9.01085
      H1   -16.50225  -13.61233   -8.49867
       H   -10.76244  -10.60697  -14.27526
       O   -10.61431  -10.10135  -15.08854
      H1    -9.85285  -10.53812  -15.42039
       H   -13.45027  -14.14538  -11.04344
       O   -13.82856  -14.37580  -11.87766
      H1   -13.75674  -15.31580  -11.77352
       H   -15.94757  -17.35768  -13.77316
       O   -15.73051  -16.47909  -13.40721
      H1   -15.69619  -15.95233  -14.14451
       H   -14.81794   -7.81404  -17.66630
       O   -15.12991   -7.25737  -18.35741
      H1   -15.82979   -6.77288  -17.82837
       H   -13.98944   -3.94685  -14.42576
       O   -14.88592   -4.02105  -14.11686
      H1   -14.89572   -5.01319  -14.07202
       H    -9.48378   -7.18537  -18.20919
       O    -8.50388   -7.46753  -18.26211
      H1    -8.32181   -7.60132  -17.34158
       H   -13.40657   -8.91485  -16.68735
       O   -14.10684   -9.48639  -17.13934
      H1   -13.96467  -10.36314  -16.75872
       H   -10.01298   -2.48624  -17.12126
       O   -10.60996   -3.16281  -17.45883
      H1   -10.05143   -3.93501  -17.63278
       H   -17.58663  -11.47904  -12.90499
       O   -17.18778  -10.69136  -12.52564
      H1   -17.58592  -10.67634  -11.64207
       H   -17.88454   -3.71661  -19.19460
       O   -18.76391   -4.12647  -19.12992
      H1   -19.02035   -3.88126  -18.17448
       H   -16.31833   -9.36617  -17.05029
       O   -16.76211   -9.27121  -16.17368
      H1   -15.98182   -9.49204  -15.64699
       H   -12.20143   -3.74561  -13.64339
       O   -12.18064   -3.32469  -14.53444
      H1   -12.45193   -4.01507  -15.21468
       H   -17.48341  -15.18908  -11.82376
       O   -17.81247  -15.60078  -10.99237
      H1   -17.47131  -14.91393  -10.37678
       H   -17.82934  -16.95262  -17.09670
       O   -18.09779  -17.80730  -16.64019
      H1   -17.28596  -17.78511  -16.13423
       H   -15.64250   -6.69981  -14.88193
       O   -14.91397   -6.78231  -14.20981
      H1   -15.45685   -7.12604  -13.41368
       H   -11.95475  -13.09425  -16.35400
       O   -11.38565  -13.80874  -16.71900
      H1   -11.51735  -14.38928  -15.90165
       H   -17.45967   -6.51276  -16.20894
       O   -16.60264   -6.01247  -16.22711
      H1   -16.88056   -5.29915  -15.66914
       H   -18.92689  -11.27852   -6.92217
       O   -18.68288  -10.38483   -7.14024
      H1   -18.54072  -10.32767   -8.07265
       H   -13.07899   -5.01291  -17.39186
       O   -13.45542   -5.04549  -16.49981
      H1   -13.84742   -5.96516  -16.37753
       H   -14.13069   -4.87939  -10.05772
       O   -13.58150   -4.57992   -9.24777
      H1   -13.17085   -5.38396   -8.83340
       H   -15.64159  -15.61487  -17.41145
       O   -15.18326  -15.31086  -16.61269
      H1   -14.25629  -15.51646  -16.83144
       H   -15.85702   -5.41441  -11.52500
       O   -14.89729   -5.14633  -11.65143
      H1   -14.94903   -4.47239  -12.29130
       H   -18.17370  -12.69709  -17.09200
       O   -18.37943  -12.47851  -16.21135
      H1   -19.28007  -12.21871  -16.19377
       H   -16.84320   -1.41689  -16.61218
       O   -16.39348   -0.55777  -16.82520
      H1   -16.43843   -0.13195  -15.93803
       H   -11.36562   -8.47374  -16.11502
       O   -12.21975   -7.98685  -15.99633
      H1   -12.19893   -7.30989  -16.66778

