180
frame 4 | Written by MDAnalysis XYZWriter (release 2.4.3)
       H     2.90192   13.96199   16.63245
       O     3.50810   13.37128   17.10289
      H1     4.37033   13.40825   16.66195
       H     9.32184   18.48959   11.51437
       O     8.85860   17.91452   10.80945
      H1     8.00128   17.67645   11.16595
       H     2.59703   11.78123   17.58257
       O     2.46912   10.91462   17.98281
      H1     3.09850   10.83168   18.70512
       H    13.58457   20.19113   11.76665
       O    14.17216   19.42471   11.69923
      H1    13.66724   18.84763   11.08570
       H     5.61282   12.88116   14.64444
       O     6.38680   12.94699   15.25739
      H1     6.61897   12.04831   15.46713
       H    11.07302    8.71396   17.88542
       O    10.19500    8.34215   18.13154
      H1     9.93974    9.09045   18.80869
       H     5.22188   15.96380   18.62889
       O     4.35548   16.39416   18.72715
      H1     4.42687   17.01896   19.46136
       H    12.85202   19.39149   14.93349
       O    12.58946   18.83608   14.19201
      H1    13.20856   19.04011   13.48222
       H    10.55733   13.15013   16.53551
       O    10.08874   12.96330   17.29261
      H1    10.12758   13.79967   17.82232
       H     3.68210   12.74287   13.88975
       O     4.21673   12.10420   13.47252
      H1     4.21582   12.36699   12.56221
       H     7.59035   15.22713    8.63852
       O     7.60151   14.36568    9.11070
      H1     7.14454   13.76861    8.53092
       H    12.62146   13.73560   15.72051
       O    13.36914   13.44074   16.29087
      H1    13.06251   13.28132   17.17359
       H     8.59645   12.01435   17.19631
       O     7.87426   11.35333   17.01079
      H1     8.33933   10.57547   16.64843
       H     9.18438    8.97100   13.98197
       O     9.73107    9.15814   13.19250
      H1     9.59101    8.38835   12.62852
       H    14.51238   19.11640   19.05035
       O    14.07634   18.29717   18.71255
      H1    13.44724   18.56174   18.09547
       H     4.18707   17.56823   12.84590
       O     3.28014   17.32971   13.19620
      H1     2.81953   17.00166   12.39375
       H     5.99484   18.34999   11.57971
       O     5.83221   17.61562   12.14186
      H1     5.80591   16.77023   11.65514
       H     7.08911   16.95019   12.93331
       O     7.87304   16.69437   13.42153
      H1     7.93712   15.73284   13.50001
       H     9.74242   20.15974    8.83948
       O     9.18592   19.42039    8.54977
      H1     9.15625   18.84603    9.35119
       H    10.12429   16.62672   10.63574
       O    10.71424   15.95472   10.44809
      H1    11.62032   16.33372   10.64728
       H     2.16792   15.91113   17.85225
       O     1.28038   15.57028   17.78098
      H1     0.76536   16.26731   17.29408
       H    11.03996   14.89590   14.16541
       O    11.11319   13.95855   14.51905
      H1    11.57239   13.46693   13.83664
       H     9.05068    8.46217   16.39325
       O     8.51402    9.09048   15.82664
      H1     7.61129    8.65548   15.83331
       H    14.74893   15.28263   17.63345
       O    15.35428   15.48293   18.41006
      H1    14.95988   16.11375   19.01173
       H    11.87446   20.21045   17.11664
       O    11.97710   19.23515   17.12855
      H1    11.11917   18.78411   16.79244
       H    11.01628   15.45982   19.34910
       O    10.11695   15.14715   19.07608
      H1     9.51057   15.86840   19.36025
       H     9.41649   13.70421   14.34977
       O     8.49817   13.86475   13.96232
      H1     7.79209   13.54782   14.60554
       H    16.95956   17.05541   16.88273
       O    16.51056   17.87605   17.09277
      H1    15.61889   17.57764   17.04318
       H     2.40176    9.23841   14.97266
       O     2.19054    9.11535   15.92559
      H1     2.48472    9.82864   16.49574
       H     4.51502   13.18250   10.46437
       O     4.51493   12.22874   10.63238
      H1     3.61396   12.00919   10.46697
       H     0.07169   13.46826   18.17327
       O    -0.18399   12.91700   17.38680
      H1    -1.17937   12.86190   17.46416
       H    -0.44278   16.80992   15.31584
       O    -0.16008   17.09914   16.17738
      H1     0.17159   17.98655   16.20772
       H    -0.10371   13.65521   15.42520
       O    -0.49920   13.45176   14.57325
      H1    -0.86816   14.32432   14.27904
       H     1.09947   16.50616   10.98861
       O     1.49025   15.88784   11.65857
      H1     0.87891   15.16655   11.80986
       H     4.18849   17.35777   15.49461
       O     4.25786   17.83491   16.31899
      H1     4.21403   17.23120   17.07533
       H     6.61902   13.91109   16.93217
       O     6.51547   14.43001   17.71187
      H1     6.47428   13.79539   18.44148
       H    -1.56800   16.68995   17.51999
       O    -2.46013   16.41632   17.72219
      H1    -2.37536   15.83857   18.48380
       H     2.27787   14.92008   10.36126
       O     2.93273   14.38892    9.86260
      H1     3.09560   14.79751    8.95547
       H     5.90238   11.26221   10.75249
       O     6.60302   10.58994   10.82271
      H1     7.30824   10.89656   11.38654
       H    17.33168   14.24384   15.76232
       O    17.52304   14.97151   16.41026
      H1    16.77486   14.97695   17.01563
       H     8.55147   12.05673   13.13208
       O     8.49312   11.49130   12.41081
      H1     9.06769   10.77684   12.69740
       H    12.98970   12.37952   19.62123
       O    13.30340   12.50966   18.72079
      H1    14.25881   12.53462   18.70293
       H    15.19608   16.01260   12.91625
       O    14.30394   15.78778   13.14892
      H1    14.12842   14.97635   12.70821
       H    17.13885   12.05331   18.40241
       O    16.19777   11.87397   18.25495
      H1    16.12681   11.89841   17.29757
       H     8.63087   16.81497   17.56406
       O     7.71321   16.85281   17.90140
      H1     7.38379   15.98106   17.85297
       H     7.65253   18.11964   14.55867
       O     7.25614   18.60779   15.33005
      H1     7.21501   17.96074   16.03591
       H     6.28366   14.92046   10.08585
       O     5.54423   15.47712   10.49224
      H1     4.63106   15.36941   10.14415
       H    10.18793   17.25546   15.69509
       O     9.91877   17.74751   16.46474
      H1     9.11584   18.30330   16.22926
       H    10.17881   13.98247   10.59061
       O    10.34245   13.01824   10.87429
      H1     9.49586   12.67710   11.18221
       H    13.78481   16.45927   11.53903
       O    13.34573   16.86999   10.79643
      H1    13.87527   16.73730   10.03415
       H    14.25534   16.41394   15.12655
       O    13.98712   16.72802   16.03287
      H1    13.28626   17.35201   15.80809
       H     6.81259    8.61099   18.60270
       O     6.69652    9.53768   18.78592
      H1     7.15755   10.03970   18.13478
       H     5.18063    9.15096   13.52498
       O     5.53790    8.82381   12.66346
      H1     5.80561    9.60204   12.17905
       H    15.93865   12.54851   14.82603
       O    15.25836   12.02188   15.23695
      H1    14.59231   12.67012   15.58122
       H    12.12874   13.61409   11.77437
       O    12.94201   13.55857   12.32402
      H1    12.99396   12.57873   12.17141
       H     2.81236    9.37342   12.26337
       O     2.69411    9.69100   13.22075
      H1     3.24604   10.49509   13.30142
       H     2.87098   14.64525   13.73817
       O     2.53763   14.13120   14.45285
      H1     1.72005   13.76115   14.06069
       H    10.24071   16.70713   13.22385
       O    10.91588   16.64381   13.87091
      H1    11.70554   16.99431   13.44411
       H     5.89234    7.77440   15.84512
       O     5.50850    8.65346   16.02228
      H1     5.31961    8.71669   16.96669
       H    13.11961   10.27040   18.39439
       O    12.68994    9.46686   18.07122
      H1    12.86322    8.85235   18.84349

