180
frame 4 | Written by MDAnalysis XYZWriter (release 2.4.3)
       H   -11.84729    7.30886   14.52950
       O   -10.89043    7.13170   14.35624
      H1   -10.53341    7.68491   15.07284
       H    -7.40442    1.68748    8.78358
       O    -7.08680    1.43032    9.65111
      H1    -7.89172    1.79305   10.05123
       H    -5.69350    4.93635   17.22179
       O    -5.27658    5.23066   18.02354
      H1    -4.36168    5.02123   17.78057
       H   -10.01394    7.57169   12.96188
       O    -9.25102    7.88015   12.39124
      H1    -8.46681    7.68811   12.91056
       H   -12.68530   -1.90613   16.25155
       O   -12.82110   -0.93166   16.12746
      H1   -12.25995   -0.75434   15.35908
       H   -17.48463    3.24533   16.34242
       O   -16.65763    2.73635   16.27823
      H1   -16.04216    3.50331   16.24237
       H    -7.24975   -4.22409   15.10735
       O    -6.43026   -4.16482   14.59136
      H1    -6.12341   -3.25449   14.83292
       H   -10.27152    3.92245   13.98796
       O    -9.98778    4.59493   13.32860
      H1   -10.23678    5.35999   13.79547
       H    -9.78538    4.63616   17.75538
       O   -10.71303    4.42751   18.00707
      H1   -10.53892    3.67962   18.63724
       H    -9.88284    1.54214   15.67923
       O   -10.21221    2.40676   15.58644
      H1   -10.27715    2.83205   16.48178
       H   -11.38409   -0.71664   11.07068
       O   -11.06537   -1.16929   10.27291
      H1   -11.91411   -1.31517    9.77816
       H   -12.70954   -3.84295   15.38780
       O   -12.29283   -3.74354   16.25971
      H1   -12.85509   -4.38872   16.69985
       H   -13.99775    8.73637   14.94832
       O   -13.31904    8.45858   14.34923
      H1   -13.84874    7.94694   13.76928
       H   -13.94227    3.85167   15.73642
       O   -14.41208    4.65101   15.57993
      H1   -14.01481    5.21521   16.24810
       H    -4.86815    3.85819   10.53937
       O    -5.58760    4.03725    9.93777
      H1    -6.08005    3.18375   10.04246
       H   -10.09931    4.93142    8.95121
       O    -9.89416    5.65917    9.53305
      H1    -9.34365    5.29112   10.22380
       H   -10.29945   -1.25006   19.21340
       O   -10.45268   -1.91479   18.54095
      H1   -11.42439   -1.78703   18.38672
       H    -8.56542    3.03286   14.23018
       O    -7.88276    2.65185   13.67164
      H1    -7.73269    1.73501   13.99281
       H    -6.47596   10.62179   15.89242
       O    -6.39205    9.65877   16.09329
      H1    -6.78281    9.18304   15.32967
       H    -6.47980    7.09540   14.00556
       O    -7.23787    7.56349   14.34290
      H1    -7.50417    6.97518   15.09960
       H   -12.36851    8.72002   17.98659
       O   -11.89274    7.98375   18.34052
      H1   -12.48128    7.27465   18.11858
       H   -14.68459    1.69810   17.99931
       O   -14.25276    0.84362   18.25233
      H1   -15.01525    0.49573   18.84825
       H   -11.60353    0.92512    9.25117
       O   -10.89349    1.16026    8.63421
      H1   -11.42580    1.26335    7.77739
       H    -9.87413   10.15908   14.70706
       O    -9.99142   10.34614   13.76622
      H1    -9.75666    9.45155   13.47143
       H    -8.28355    9.97734   18.48461
       O    -8.20515    9.12897   18.03402
      H1    -7.56993    9.40046   17.39662
       H   -11.36116    0.59528   12.74028
       O   -11.41673   -0.34082   12.88815
      H1   -10.49713   -0.47832   13.14769
       H   -10.75920    8.12695   10.95912
       O   -11.69090    8.25274   11.04957
      H1   -11.96191    7.52347   10.39998
       H   -18.75713    1.97365   14.01690
       O   -18.05598    1.33170   14.20565
      H1   -17.49737    1.95709   14.69148
       H   -13.65018   -1.32070   18.36765
       O   -13.26394   -1.94423   18.95793
      H1   -13.12770   -1.43526   19.71369
       H    -9.48491   -4.17453   14.57437
       O    -9.36371   -3.38339   15.13159
      H1   -10.18543   -3.50164   15.67051
       H    -8.84663    6.45611   11.45840
       O    -8.24029    5.68466   11.52083
      H1    -8.53650    5.37234   12.39366
       H    -5.65500   -3.74536   18.01851
       O    -5.35150   -2.90271   17.72972
      H1    -4.40859   -3.19503   17.41482
       H   -16.21899    0.14515   15.60520
       O   -15.80730   -0.72383   15.89839
      H1   -14.92378   -0.47569   16.18633
       H    -8.85932    2.46280   11.79334
       O    -9.22094    2.57877   10.90041
      H1   -10.18790    2.56110   11.06473
       H   -11.64760    5.92976    9.63092
       O   -12.47383    6.37495    9.37177
      H1   -12.43075    6.29941    8.41207
       H    -5.03435   -1.42365   15.01341
       O    -5.88776   -1.43049   15.47931
      H1    -5.82700   -2.03469   16.15611
       H    -8.51230   -0.19512   16.15609
       O    -9.32621   -0.01472   16.66103
      H1    -9.59423   -0.89742   16.95415
       H    -5.65016    4.45690   15.03648
       O    -6.44134    4.43738   15.53628
      H1    -6.95052    3.66490   15.16741
       H    -5.96770    0.26854   12.48419
       O    -6.63389   -0.09925   11.87061
      H1    -6.60031    0.29580   11.00385
       H    -8.18592    4.48266   19.17260
       O    -7.80474    4.37636   18.27559
      H1    -7.02837    4.90940   18.44231
       H   -16.28350    5.96454   13.10735
       O   -16.63251    5.24389   13.69605
      H1   -15.90065    5.05965   14.30111
       H    -3.25621    5.05100   14.42674
       O    -3.87162    4.50633   13.91071
      H1    -4.13414    5.21377   13.27233
       H    -4.40470    1.50004   15.86408
       O    -3.53990    1.82910   16.13285
      H1    -3.17845    1.97280   15.23079
       H   -13.11341    5.45196   18.52685
       O   -13.06001    5.68303   17.59481
      H1   -12.18528    5.27796   17.58318
       H    -8.73711    0.10093   18.46747
       O    -8.49846    0.03646   19.39419
      H1    -7.85181   -0.65743   19.39439
       H   -11.41797   -2.83750   11.42672
       O   -11.83142   -3.76161   11.48855
      H1   -11.28170   -4.20057   12.24116
       H   -16.45050   -1.23647   12.91311
       O   -16.20125   -2.06856   13.43661
      H1   -15.82811   -1.64153   14.22811
       H    -8.77434   -2.13316   13.93600
       O    -8.85961   -1.63407   13.06367
      H1    -7.97134   -1.27498   12.89287
       H    -7.40238    1.37444   18.62755
       O    -6.84683    1.84176   18.04278
      H1    -7.13865    2.78152   18.24236
       H   -17.97141   -1.73411   17.84552
       O   -17.33301   -1.05906   18.09100
      H1   -16.82869   -0.90351   17.28061
       H   -14.83376    1.31251   12.10495
       O   -14.93593    2.01759   12.76980
      H1   -15.59139    2.51714   12.30900
       H    -5.51492    7.35225   11.91938
       O    -5.55030    6.43213   12.29120
      H1    -6.35406    6.07102   11.87215
       H   -13.02602    2.47285   12.49097
       O   -12.06880    2.36745   12.28720
      H1   -11.79985    3.28397   12.11326
       H    -3.00174   -0.30106   13.67965
       O    -3.96250   -0.34440   13.70103
      H1    -4.11155   -1.15888   13.20761
       H    -9.44843    9.07896   16.97536
       O   -10.16170    9.06608   16.32421
      H1   -10.88484    8.79029   16.93363
       H    -7.05698    1.26200   16.35378
       O    -7.23489    0.86359   15.46949
      H1    -6.54696    0.22308   15.49986
       H   -13.26748   -0.31017   12.51339
       O   -14.01785   -0.43761   11.92621
      H1   -14.25903   -1.37726   12.08255
       H    -9.92231   -3.73481   18.96203
       O    -9.81679   -4.67670   19.12248
      H1   -10.34664   -4.90178   18.36621
       H    -8.17555    5.61516   16.81326
       O    -8.97802    6.18469   16.56443
      H1    -8.87543    6.89894   17.21481
       H   -12.92577    1.28003   16.18353
       O   -13.22580    2.09346   15.76936
      H1   -12.39349    2.37761   15.35549

