180
frame 1 | Written by MDAnalysis XYZWriter (release 2.4.3)
       H    -2.50972  -10.24697  -14.16942
       O    -1.97818   -9.63517  -13.59098
      H1    -2.31625   -9.90189  -12.73687
       H    -0.57257  -20.07861  -13.38784
       O    -0.66968  -19.14868  -13.46990
      H1     0.30005  -18.90077  -13.41107
       H    -4.32914  -12.45706  -16.04326
       O    -4.83235  -13.22987  -16.35891
      H1    -5.64949  -12.81946  -16.62151
       H    -5.44075  -13.41953  -14.80779
       O    -5.84751  -13.48399  -13.89655
      H1    -6.66362  -13.01861  -14.01501
       H    -1.75421  -15.27347  -10.45041
       O    -1.99616  -14.93130  -11.31067
      H1    -2.72125  -14.32986  -11.13989
       H    -2.33839  -11.42165  -15.96573
       O    -3.08954  -11.29053  -15.32287
      H1    -2.87652  -12.02127  -14.68260
       H    -1.95366  -11.22386  -18.16830
       O    -1.50923  -11.17386  -17.28278
      H1    -0.60136  -11.35957  -17.46235
       H     2.10024  -15.52243  -10.05816
       O     1.20665  -15.21045   -9.94111
      H1     1.17771  -15.21753   -8.96532
       H     5.97327  -18.30931  -15.43377
       O     5.09751  -18.07615  -15.07073
      H1     5.16879  -17.20490  -14.65536
       H    -8.77801  -12.07829  -14.68130
       O    -8.33954  -12.86688  -15.01913
      H1    -7.81526  -12.46976  -15.70386
       H    -2.35125  -16.09671  -14.38800
       O    -1.40912  -16.02371  -14.76652
      H1    -0.75876  -16.27212  -14.06718
       H     4.10615  -15.23507  -13.92647
       O     4.93326  -15.65598  -13.63607
      H1     5.51559  -14.88868  -13.47223
       H     2.15569  -13.28227  -11.99512
       O     3.04796  -13.15612  -12.36326
      H1     2.90739  -13.47543  -13.24730
       H     1.06579  -17.59378  -19.63050
       O     0.31747  -17.82320  -19.10918
      H1     0.73647  -18.02036  -18.32419
       H     2.10486  -12.08551  -17.22501
       O     2.99704  -11.78527  -17.29552
      H1     3.22547  -12.20928  -18.12803
       H     0.21931  -14.75040  -17.28969
       O     0.59220  -14.75917  -16.42067
      H1    -0.14620  -14.96662  -15.82969
       H     8.14985  -17.12164  -13.28663
       O     7.57933  -17.07336  -14.02343
      H1     6.79745  -16.71951  -13.60547
       H     3.62855  -14.20166  -11.12125
       O     4.07396  -15.02492  -10.83642
      H1     4.25747  -15.43377  -11.67474
       H    -7.21766  -18.55874  -11.53117
       O    -6.41245  -18.66530  -11.02455
      H1    -5.93673  -17.82507  -11.02550
       H    -6.20744  -18.62308  -15.38800
       O    -5.27867  -18.55590  -15.59510
      H1    -4.98448  -18.08267  -14.78537
       H     1.33608  -16.15620  -13.79425
       O     0.70915  -16.05126  -13.03936
      H1     0.91581  -15.11247  -12.76373
       H    -9.22244  -15.69295  -17.96856
       O    -8.45622  -15.63995  -17.32213
      H1    -8.79941  -14.84283  -16.91942
       H    -2.82408  -10.01887  -10.66291
       O    -3.46032  -10.20312  -11.36854
      H1    -4.16199   -9.47947  -11.18530
       H    -4.27622  -15.51765  -13.67930
       O    -4.17460  -16.41563  -13.98090
      H1    -3.92210  -16.95187  -13.22643
       H    -2.10102  -14.18543  -13.71675
       O    -2.47183  -13.29789  -13.64020
      H1    -1.65855  -12.96056  -13.22224
       H    -5.14985  -13.26763  -11.39182
       O    -4.52287  -12.92003  -10.66754
      H1    -3.99235  -12.18525  -11.11220
       H    -6.75398  -15.95145  -13.71058
       O    -6.87563  -16.35977  -12.84392
      H1    -7.75544  -16.75595  -13.01487
       H    -6.78634  -14.75659  -11.85512
       O    -7.00984  -13.86434  -11.54653
      H1    -7.23469  -13.99281  -10.59890
       H    -0.45925  -17.31562   -9.86761
       O    -0.91763  -17.16393   -9.00687
      H1    -0.23953  -16.61323   -8.51546
       H    -8.68332  -17.94058   -8.95156
       O    -7.97749  -18.53283   -8.63266
      H1    -7.37791  -18.47194   -9.43404
       H     4.78798  -13.23789  -19.34733
       O     4.41786  -12.38954  -19.66502
      H1     4.90220  -11.65380  -19.23748
       H     2.75496  -17.44450  -18.15126
       O     3.11559  -16.76889  -18.75151
      H1     3.38910  -16.07956  -18.10885
       H    -1.33537   -9.25700  -16.92491
       O    -1.49969   -8.31871  -17.19386
      H1    -1.15595   -7.77145  -16.41681
       H    -9.74542  -19.19563  -17.39406
       O   -10.22948  -19.05770  -16.60933
      H1   -10.39294  -18.09437  -16.60141
       H     2.55210  -18.01849  -15.17640
       O     2.01762  -17.20229  -15.23184
      H1     1.32010  -17.54720  -15.82470
       H    -4.23970  -14.70872  -17.02785
       O    -3.81381  -15.50806  -17.47591
      H1    -3.73378  -16.04793  -16.67241
       H     2.52655  -18.24440  -11.17596
       O     3.36561  -18.48103  -11.58978
      H1     4.02210  -18.24986  -10.91359
       H    -6.28607  -10.78012  -17.11193
       O    -6.88969  -11.53857  -16.91751
      H1    -7.41824  -11.26020  -17.69618
       H     1.05543  -13.51563  -19.47293
       O     0.97063  -12.59454  -19.06511
      H1     0.47138  -12.18866  -19.78965
       H     0.15747  -18.66231  -11.69271
       O     0.71412  -18.18125  -11.10033
      H1     0.74823  -17.27862  -11.45429
       H     6.49092  -13.70087  -15.79202
       O     5.69174  -13.15334  -15.83008
      H1     5.91326  -12.48447  -15.14352
       H     2.38738  -14.30394  -15.72995
       O     2.88874  -13.92409  -15.03150
      H1     3.58502  -13.52982  -15.51252
       H     1.57475   -8.87714  -14.88718
       O     2.11172   -9.47302  -14.29959
      H1     1.47205  -10.14988  -14.06346
       H     5.12062  -17.31326  -18.10457
       O     5.96399  -16.95044  -18.51508
      H1     6.66288  -17.51650  -18.08829
       H    -0.18045  -12.72329  -12.17132
       O     0.06755  -13.62581  -12.36200
      H1    -0.53530  -14.08784  -11.73910
       H    -9.52244  -17.81004  -13.17494
       O    -9.34847  -18.48196  -12.50391
      H1    -9.61175  -18.01220  -11.70124
       H    -1.29497  -17.61666  -16.06549
       O    -1.16777  -18.46639  -16.45252
      H1    -0.92777  -18.96445  -15.62730
       H    -4.73744  -15.69692   -8.64633
       O    -4.79342  -14.70920   -8.48668
      H1    -4.51754  -14.38945   -9.31186
       H    -0.84896  -15.98899  -18.94661
       O    -1.11926  -15.11944  -18.54392
      H1    -1.93740  -15.44132  -18.11250
       H    -6.68599  -16.71382  -18.04801
       O    -6.00603  -16.97605  -18.71374
      H1    -5.23602  -16.52002  -18.33345
       H    -0.51545  -10.32197  -13.08992
       O     0.17303  -10.94590  -12.73748
      H1     0.62709  -10.44370  -11.99881
       H    -3.65482  -17.76524  -10.15128
       O    -3.71340  -17.01848   -9.55781
      H1    -2.79935  -16.95281   -9.28219
       H     3.12444  -10.04169  -17.96487
       O     3.05145   -9.52280  -18.77641
      H1     3.81930   -8.94263  -18.70334
       H    -4.47751  -10.21415  -16.10829
       O    -4.80491   -9.98695  -16.96452
      H1    -4.08038   -9.98608  -17.56277
       H     0.01781  -18.82782   -8.39847
       O     0.51581  -19.27191   -7.68970
      H1     0.93686  -20.05536   -8.13371
       H    -9.14344  -16.28895  -15.53755
       O    -9.60138  -16.59186  -14.76244
      H1   -10.37563  -16.09447  -14.80729
       H     4.99692  -13.83361  -17.39627
       O     4.85539  -14.50399  -18.13609
      H1     5.74183  -14.86776  -18.29327
       H     3.69236  -10.86251  -15.96906
       O     4.56342  -10.50785  -15.73883
      H1     4.34309   -9.90204  -15.00189
       H     4.03961  -11.66206  -11.92046
       O     4.19019  -10.84207  -11.48215
      H1     4.75191  -10.26514  -12.03990
       H    -3.34115  -19.24940  -12.50930
       O    -3.14627  -18.28724  -12.40171
      H1    -2.20825  -18.37245  -12.61246

