180
frame 6 | Written by MDAnalysis XYZWriter (release 2.4.3)
       H    12.64514  -10.53616  -14.37049
       O    11.96185  -10.23731  -14.94184
      H1    12.39386  -10.41188  -15.83946
       H    10.10702   -6.40180  -19.16465
       O    10.91953   -6.85944  -18.86747
      H1    10.56186   -7.78522  -18.76210
       H     6.95386    0.29886  -19.48008
       O     7.24966   -0.59832  -19.46081
      H1     7.36633   -0.86080  -18.56726
       H     6.87048   -6.32172  -10.71307
       O     7.39430   -5.58091  -11.19364
      H1     7.26230   -5.78520  -12.12809
       H     9.80434   -3.36185  -13.28282
       O     9.13818   -2.71621  -12.96612
      H1     9.16373   -2.09034  -13.74494
       H     7.10224   -9.17861  -17.87071
       O     6.51012   -9.90442  -18.10339
      H1     6.89866  -10.15889  -18.92709
       H    11.29435   -4.46887  -16.49668
       O    11.12207   -4.68349  -15.54154
      H1    10.85125   -5.61306  -15.64082
       H     9.35832   -2.68399  -11.39154
       O     9.50681   -2.16882  -10.52463
      H1     8.84862   -2.61026   -9.97370
       H     3.98739   -3.07941  -10.94204
       O     3.61916   -3.83506  -10.42011
      H1     3.43645   -3.49082   -9.51245
       H     6.88185    1.35584  -12.80933
       O     6.96778    0.87513  -13.66251
      H1     6.02904    0.62515  -13.78355
       H     1.96303  -13.14442  -17.74985
       O     2.75497  -13.04556  -17.18224
      H1     3.49748  -13.20370  -17.82402
       H     8.68605    0.15117  -14.07240
       O     9.40697   -0.34901  -14.53672
      H1    10.08496    0.32209  -14.63105
       H     1.37595   -2.93962  -12.52507
       O     1.02684   -2.71929  -11.69870
      H1     1.27039   -3.55543  -11.26347
       H    12.96749   -4.88912  -12.65128
       O    12.93172   -4.18259  -13.34200
      H1    12.37829   -4.57332  -13.99930
       H     3.53528   -7.07713  -18.00795
       O     4.05906   -7.79199  -17.60719
      H1     4.98513   -7.50505  -17.79672
       H    11.30859   -7.55053  -16.88757
       O    11.38876   -7.41727  -15.89805
      H1    11.50830   -8.35447  -15.65529
       H    10.63657   -1.18676  -16.76841
       O    10.48319   -0.79322  -17.61377
      H1     9.50581   -0.98219  -17.54453
       H     2.18723   -5.30037  -10.70991
       O     1.33578   -5.76846  -10.79649
      H1     0.90926   -5.65045   -9.94846
       H    -0.28966   -7.84026  -13.63279
       O     0.53488   -7.46209  -13.31120
      H1     0.23366   -7.27471  -12.37933
       H    10.25382   -9.90191  -19.59922
       O     9.99970   -9.68769  -18.70284
      H1     9.55614  -10.56878  -18.40212
       H     3.46750   -6.53330  -14.82085
       O     4.26388   -6.99856  -14.94485
      H1     4.04354   -7.37071  -15.80976
       H     8.48498  -10.46626  -13.94829
       O     8.71534   -9.77381  -14.59426
      H1     9.65220   -9.81659  -14.68567
       H     2.39162   -7.64393  -11.70875
       O     2.53056   -8.60957  -11.67421
      H1     2.32566   -8.87176  -12.63765
       H     3.76059   -1.20904  -12.26163
       O     4.55330   -1.62151  -11.88433
      H1     5.03195   -1.95140  -12.69262
       H     9.19159   -6.93338  -15.13997
       O     8.37589   -6.58454  -15.53641
      H1     7.91642   -6.26138  -14.79014
       H     8.63451  -11.08782  -16.44788
       O     8.74977  -11.80119  -17.06586
      H1     7.83330  -12.12573  -17.04415
       H     1.25028   -8.18807  -17.21154
       O     1.07407   -8.00933  -16.28325
      H1     1.29653   -7.08303  -16.14795
       H    11.66359   -2.57300  -17.63757
       O    11.62947   -3.45623  -18.01068
      H1    10.88598   -3.32735  -18.62497
       H     9.48216   -3.90449  -15.71243
       O     8.61341   -3.57984  -15.90820
      H1     8.05290   -4.09253  -15.28877
       H    11.44456   -3.45923   -9.91079
       O    11.43008   -4.35816  -10.27260
      H1    11.01904   -4.28366  -11.16847
       H     9.64925   -7.96669   -9.72354
       O     9.36602   -8.82827  -10.06842
      H1     9.17301   -8.55701  -10.99543
       H     5.33535  -13.67555  -18.83956
       O     5.15090  -12.70187  -18.82794
      H1     5.58834  -12.47496  -18.01513
       H     1.58559   -5.81363  -18.68470
       O     2.52275   -5.64464  -18.52726
      H1     2.80534   -5.04121  -19.25984
       H     7.23199   -8.35386  -12.22635
       O     8.15228   -8.15290  -12.46438
      H1     8.26094   -8.46108  -13.34557
       H    -1.09420   -4.66360  -18.91206
       O    -0.48596   -5.30241  -18.43536
      H1    -0.71344   -6.18041  -18.87019
       H     9.45561  -13.25588  -16.04166
       O     9.70940  -13.60586  -15.14859
      H1     9.36794  -12.94726  -14.54538
       H     6.24533  -11.22441  -16.66704
       O     6.04840  -12.11627  -16.33186
      H1     5.42337  -11.90293  -15.51418
       H    13.04661   -7.01186  -15.40983
       O    13.98570   -7.16825  -15.32172
      H1    14.40342   -6.77107  -16.12436
       H    12.74013  -11.86057  -17.78655
       O    12.80116  -10.99109  -17.35156
      H1    12.68362  -10.35513  -18.03785
       H     8.96746   -5.44559  -12.06178
       O     9.82656   -5.37227  -12.50630
      H1    10.03167   -6.33500  -12.62007
       H     3.94969   -2.91075  -14.48039
       O     4.91103   -2.62146  -14.51617
      H1     4.92599   -2.27138  -15.39859
       H     7.70061   -5.67742  -19.22350
       O     8.47313   -5.51428  -19.72029
      H1     8.65210   -4.58189  -19.50425
       H     7.25279   -3.91310   -9.89514
       O     7.57177   -3.33711   -9.17337
      H1     7.60904   -3.98757   -8.50221
       H     6.48274    2.34179  -15.84949
       O     6.93236    1.70323  -16.43443
      H1     7.04531    0.96878  -15.79615
       H    11.88836   -2.54466  -15.05454
       O    11.86750   -1.69248  -15.54437
      H1    12.00105   -0.93394  -14.95674
       H     6.26096   -3.82941  -14.22974
       O     6.95956   -4.38440  -13.92994
      H1     7.52137   -3.75945  -13.46150
       H     7.55408  -11.77638  -13.36916
       O     8.43474  -12.07437  -13.02395
      H1     8.26456  -12.19436  -12.03962
       H     6.96790   -6.56195  -16.74312
       O     6.26421   -6.46910  -17.43679
      H1     5.56858   -6.17872  -16.84445
       H     1.96612   -9.16715  -14.97511
       O     2.10959   -9.81410  -14.27009
      H1     1.25514  -10.08038  -14.01498
       H     5.67057   -6.77302   -9.00842
       O     5.96372   -7.46126   -9.66596
      H1     5.14292   -7.69851  -10.14553
       H     4.94256   -7.73722  -13.31318
       O     5.47581   -8.07968  -12.56660
      H1     5.13592   -8.90043  -12.11462
       H     3.72424   -1.30840  -16.58485
       O     4.00617   -1.97441  -17.23465
      H1     3.49669   -2.80073  -17.03909
       H     3.31531  -11.34068  -18.13512
       O     2.91994  -10.67417  -18.77967
      H1     3.32103   -9.82654  -18.44484
       H    11.82979   -8.72980  -12.92396
       O    11.56769   -7.84315  -12.62721
      H1    12.36193   -7.38337  -12.45235
       H    12.49875   -6.03017  -19.03655
       O    13.18984   -5.44036  -19.43839
      H1    13.10951   -4.69716  -18.82674
       H     8.20937   -0.78282  -16.02799
       O     7.82368   -1.15255  -16.81978
      H1     8.24052   -2.01925  -16.74143
       H     0.56550   -5.19584  -15.11535
       O     1.45134   -5.63575  -14.89030
      H1     1.02394   -6.26586  -14.29841
       H     4.00582  -12.10128  -14.01043
       O     4.55147  -11.32692  -14.28649
      H1     3.84425  -10.71626  -14.42460
       H     4.63313  -10.93595  -12.67191
       O     4.66836  -10.65224  -11.75097
      H1     5.29539  -11.31097  -11.34282
       H     1.87712   -4.02942  -14.57404
       O     2.11642   -3.07975  -14.36381
      H1     1.47522   -2.59556  -14.85494

