180
frame 0 | Written by MDAnalysis XYZWriter (release 2.4.3)
       H    11.40568  -16.39648   16.24897
       O    11.24730  -16.09314   17.18443
      H1    10.45605  -15.48388   17.13976
       H     9.64424  -14.10609   15.94964
       O     9.00916  -14.53432   16.50428
      H1     8.50462  -13.78131   16.75084
       H    10.61731  -17.36111    7.38088
       O     9.99462  -17.27960    8.08505
      H1     9.34736  -16.71223    7.62746
       H    17.95812  -13.57039    7.75370
       O    17.02763  -13.61472    7.47035
      H1    17.05637  -13.83844    6.53031
       H     8.91598  -18.65549   13.66975
       O     9.12536  -18.19930   14.51890
      H1     8.31772  -18.41236   14.99414
       H    10.90269  -12.56734   18.73356
       O    10.12410  -12.08865   19.01472
      H1    10.19329  -12.24364   19.98971
       H    18.03749  -14.24182   12.22954
       O    17.86156  -13.35582   11.84581
      H1    17.55347  -12.90965   12.62528
       H    15.56831  -18.21075   14.16369
       O    14.72514  -18.70142   13.94536
      H1    14.05644  -18.05337   14.31793
       H    17.83141  -10.34292   11.15641
       O    18.62095   -9.96438   11.62415
      H1    18.93081   -9.30702   11.00534
       H    14.30025  -13.62163   12.17549
       O    14.01327  -14.47067   11.75939
      H1    13.63563  -14.13888   10.94019
       H    16.21273  -12.81881   17.61511
       O    16.45496  -12.86614   18.53995
      H1    17.16032  -12.14143   18.52025
       H    12.89465  -10.83061   10.82658
       O    12.26272  -11.53168   10.91588
      H1    11.46912  -11.12430   10.47486
       H    14.60372  -19.70511    6.37884
       O    14.74787  -19.21553    5.57115
      H1    15.15664  -19.83290    4.99722
       H    13.71599  -12.01125   13.44281
       O    14.60044  -12.26877   13.16933
      H1    14.92462  -12.73835   13.89623
       H    15.35793  -15.47202   18.03344
       O    15.50113  -15.70861   17.12711
      H1    16.04598  -16.48188   17.29978
       H    11.09608  -15.96877   12.19383
       O    11.49617  -15.58449   12.93751
      H1    12.26603  -15.17691   12.52866
       H    12.93656  -12.69991    9.70009
       O    13.21299  -13.44334    9.14867
      H1    14.18782  -13.39463    9.36497
       H    12.64297  -13.61366   15.32082
       O    13.43508  -14.22115   15.30291
      H1    13.26383  -14.78022   16.05559
       H    17.68487  -15.36008   19.38082
       O    18.20355  -14.94488   18.66812
      H1    17.61185  -14.25392   18.40770
       H    17.52606  -19.57062   11.37813
       O    17.78653  -19.67526   10.47903
      H1    17.68321  -18.73518   10.15607
       H     9.72377  -13.21731   13.92105
       O    10.44037  -13.67026   14.47045
      H1    10.64502  -14.45652   13.92623
       H     6.22317  -17.84403   15.93828
       O     6.67770  -18.66698   16.13567
      H1     6.02502  -18.90206   16.83294
       H     8.54550  -11.32822   13.94832
       O     8.25466  -12.08239   13.46687
      H1     7.49523  -12.42306   14.02675
       H    16.35415  -11.71930   13.71839
       O    17.29089  -11.56304   13.83051
      H1    17.54657  -10.88970   13.21881
       H    18.83823  -12.49715   10.32038
       O    18.83883  -12.44345    9.32817
      H1    19.69851  -11.93641    9.20119
       H    18.21618  -16.94418    8.48326
       O    17.77765  -17.15941    9.33446
      H1    16.95559  -16.64502    9.25469
       H    12.75833  -15.72103    9.29269
       O    12.69491  -16.65433    9.08500
      H1    13.14254  -17.02452    9.91169
       H    15.63548  -16.11634    4.03935
       O    15.71334  -16.27630    5.02650
      H1    15.52934  -17.19411    5.12228
       H     9.33718  -19.29709   11.12312
       O     8.71739  -18.96472   11.75980
      H1     7.87480  -19.04895   11.27560
       H    16.19165  -18.91958    6.54460
       O    16.90334  -18.76862    7.22532
      H1    16.61419  -18.00176    7.67689
       H    17.55490  -18.23359   17.32188
       O    17.41375  -17.51374   16.65371
      H1    17.78178  -16.84747   17.28434
       H     7.74515  -16.04325   11.68630
       O     6.80469  -15.98969   11.89535
      H1     6.93293  -15.89511   12.84314
       H    15.16827  -15.36581   13.14917
       O    15.75085  -15.30828   13.91024
      H1    15.32109  -15.14178   14.75583
       H    15.98754   -9.49090   17.42029
       O    15.96883   -9.72358   16.51359
      H1    15.58744   -8.91295   16.16623
       H    15.92781  -15.22670    8.01028
       O    15.52059  -15.97075    8.51964
      H1    14.66925  -16.16583    8.13495
       H     8.34746  -19.29946   16.94034
       O     9.20090  -19.79390   17.11115
      H1     9.92504  -19.19879   17.42997
       H     9.08110  -11.47935   10.74530
       O     9.18698  -10.64473   10.29185
      H1     8.74522  -10.85649    9.45179
       H    12.35128  -16.28281    6.53069
       O    12.07900  -17.13433    6.09661
      H1    12.81449  -17.73178    6.25872
       H    11.63987  -19.24057   10.69895
       O    10.89668  -19.18346   10.07032
      H1    11.08076  -18.36958    9.61529
       H    18.24475  -16.58188   13.25056
       O    18.91996  -16.14302   12.69068
      H1    19.12154  -16.82694   12.08920
       H    18.67839  -10.69135   17.33348
       O    18.69307  -11.22181   18.11287
      H1    18.43991  -10.59127   18.80730
       H    16.01190  -11.52878   10.47499
       O    16.16831  -10.53818   10.43393
      H1    15.36479  -10.25132   10.91783
       H    11.24512  -17.59668   17.70718
       O    11.38527  -18.46118   18.11413
      H1    10.96557  -18.35496   19.00011
       H    15.75633  -11.54337   16.16745
       O    15.71386  -12.54638   16.00460
      H1    14.71425  -12.78631   15.96080
       H    12.66244  -14.12379    7.41189
       O    12.64800  -14.47906    6.50452
      H1    12.22581  -13.79915    5.96798
       H    13.75446   -9.19698    9.94498
       O    13.63236   -9.27550   10.89976
      H1    13.49600   -8.34076   11.22541
       H     5.17357  -15.13423   15.15826
       O     4.27412  -15.40230   15.40718
      H1     3.79440  -14.57281   15.52126
       H    11.52789   -9.59287   18.42441
       O    11.21326   -9.81127   17.54709
      H1    10.83348  -10.73183   17.68713
       H     5.41783  -19.02489   11.86589
       O     5.89049  -18.59887   11.10757
      H1     6.10373  -17.68441   11.43838
       H     9.32353  -17.41081   11.09941
       O     9.43035  -16.37947   11.06530
      H1     9.83102  -16.33675   10.17080
       H    16.31546  -13.29816    9.09209
       O    15.83287  -13.13028    9.94757
      H1    16.30559  -13.62803   10.61517
       H     7.43338  -13.34229   18.60211
       O     7.60569  -12.65668   17.94608
      H1     8.42118  -12.21725   18.43169
       H    16.57853  -16.81228   13.75140
       O    17.19828  -17.60430   13.82262
      H1    17.35107  -17.68062   14.78761
       H    12.10913  -14.61605   18.02001
       O    12.16229  -13.63704   18.24037
      H1    12.90984  -13.57535   18.90384
       H     6.01486  -12.60686   15.75937
       O     6.19114  -13.11776   14.98868
      H1     5.40464  -12.98683   14.40737
       H     8.23252  -15.60180   17.65507
       O     8.07252  -16.36837   18.28443
      H1     7.15983  -16.61386   18.12713
       H    14.01391  -19.16091   10.45646
       O    13.83445  -18.31706   10.97276
      H1    14.25375  -18.47052   11.78882
       H     7.96969  -15.52415   15.18824
       O     7.42563  -16.13827   14.62332
      H1     7.98642  -16.90231   14.31122
       H     8.76665  -19.34684    6.24571
       O     8.54272  -19.51634    7.21125
      H1     8.90978  -18.68588    7.55442
       H    12.05101  -16.71754   14.19188
       O    12.38659  -17.30316   14.90684
      H1    12.04488  -18.14131   14.55563

