180
frame 6 | Written by MDAnalysis XYZWriter (release 2.4.3)
       H    17.96853   12.63963    3.83244
       O    17.95324   13.27417    4.55769
      H1    17.13033   13.00629    5.04826
       H    12.58335   14.87165    0.39243
       O    12.28858   15.23546    1.20884
      H1    11.54993   15.92051    1.01826
       H    15.32491   11.31871    5.52237
       O    15.55825   12.29930    5.60055
      H1    14.77675   12.67064    5.13233
       H    11.97020   13.29073   11.51551
       O    11.08467   13.50864   11.16254
      H1    10.50797   13.52278   11.89997
       H    19.04214   11.46148    1.95672
       O    18.38933   10.84310    1.51482
      H1    18.25876   10.24059    2.32967
       H    16.69880    7.61074    5.94113
       O    15.83197    7.26344    5.78355
      H1    16.03876    6.31960    5.51846
       H     8.90431    8.72670    6.19798
       O     9.56974    8.15221    6.55672
      H1     9.32829    8.10401    7.44573
       H    15.62273   10.29238   -0.36210
       O    16.47435    9.77458   -0.45943
      H1    17.15342   10.36940   -0.07387
       H    16.56464   14.06292    2.31136
       O    16.82314   14.89396    2.79324
      H1    17.42574   14.50114    3.46223
       H    10.65465   17.98364    1.05502
       O    10.31017   17.09146    1.21957
      H1     9.47503   17.15918    1.72429
       H     8.61537   12.21961    1.83786
       O     8.00473   11.67050    1.38997
      H1     7.35829   12.32334    1.20611
       H    16.11394    7.92722   -0.18453
       O    15.91798    7.02273    0.12819
      H1    16.81412    6.65327    0.30524
       H    17.44323    6.54356    2.27611
       O    18.19183    6.03202    1.91780
      H1    18.21810    5.24470    2.50856
       H    13.32732   14.66405   -1.97112
       O    13.14119   13.95471   -1.33160
      H1    12.55312   13.39772   -1.89132
       H    13.27776   19.83493    0.60080
       O    13.08118   18.91302    0.40190
      H1    13.75151   18.35146    0.80934
       H    11.27569   11.84700   -0.63697
       O    12.09335   11.30887   -0.79842
      H1    12.82257   11.97580   -0.65519
       H    17.23320   16.72758   11.62016
       O    16.53580   16.41622   11.01175
      H1    16.61909   17.10295   10.31152
       H    11.74352   17.36215    5.28193
       O    12.12639   18.29839    5.20175
      H1    11.73829   18.68404    5.99088
       H    14.54889   12.82713   11.95082
       O    13.90426   12.92694   11.27116
      H1    14.43721   12.80935   10.43237
       H    18.91858   15.69605   -0.14284
       O    18.71593   16.62846   -0.40865
      H1    18.23774   16.93901    0.39509
       H    17.85220   16.23036    8.27266
       O    18.41634   15.49927    8.51117
      H1    18.97321   15.46929    7.73036
       H    15.63012   12.11747    1.77198
       O    16.35225   12.57800    1.31134
      H1    17.09194   11.93269    1.18520
       H    13.00494   10.01399   11.77552
       O    12.33292    9.56478   11.26186
      H1    12.10704   10.19499   10.56279
       H    19.17122    6.84851    4.57761
       O    18.57559    6.56290    5.32131
      H1    18.42255    5.58260    5.27279
       H    11.95249    6.70715    3.82892
       O    12.87264    6.80308    4.12781
      H1    13.17231    7.21200    3.32779
       H    15.75230   12.37759   -0.32983
       O    15.28676   12.30289   -1.17435
      H1    14.50367   12.89087   -0.98928
       H     8.73971   13.90632    4.23136
       O     9.46787   13.96247    3.57646
      H1    10.15024   14.46410    4.02497
       H    15.25893    9.08572    2.02562
       O    14.55816    9.78941    1.83819
      H1    14.06900    9.31501    1.11184
       H    10.37579   10.86393    2.45396
       O     9.89493   10.68612    3.26257
      H1    10.40430   10.06664    3.80385
       H    13.41840    9.53273    5.19351
       O    14.32187    9.70206    5.64097
      H1    14.86379    8.84611    5.49169
       H     9.56025   14.38484    7.96745
       O     9.78078   15.29390    8.09047
      H1     9.13597   15.66131    7.46752
       H    14.14937   14.94801   11.85371
       O    14.07162   15.87884   12.09755
      H1    14.85179   16.21986   11.63781
       H    17.42110   14.36196   -2.37120
       O    16.55301   14.71275   -2.09610
      H1    16.14295   13.92950   -1.73677
       H    10.47983    6.69616    1.59255
       O    10.42927    7.41766    2.26277
      H1     9.53453    7.85124    2.08086
       H    13.89256   18.89763    7.74507
       O    14.59887   19.47430    8.02911
      H1    15.41114   18.88664    8.23650
       H     9.65924   12.22604    8.14918
       O     8.95896   12.70657    7.63770
      H1     8.17519   12.34273    7.99825
       H    17.17877   17.27621    3.97492
       O    17.10625   17.36503    4.91811
      H1    16.23263   16.91652    5.06724
       H     9.98327   15.65258    5.66297
       O    10.84408   15.80182    5.24299
      H1    11.49384   15.23557    5.68298
       H    16.52234   14.63362   11.28433
       O    16.56247   13.71921   11.65316
      H1    16.92894   13.23045   10.92358
       H    12.78488   12.36310    2.15779
       O    13.78050   12.31769    2.34639
      H1    13.88700   11.36248    2.34811
       H     7.87616   12.81269    5.72601
       O     7.57303   13.51266    5.14716
      H1     7.10197   12.97541    4.45997
       H    14.37520    6.22088    6.68017
       O    13.59431    5.67067    6.71689
      H1    13.35654    5.84308    5.80630
       H    10.56146   12.84612    2.68970
       O    11.02241   12.73443    1.82936
      H1    11.27366   13.66844    1.75267
       H    10.71455    8.60414    5.35840
       O    11.29271    9.09454    4.67426
      H1    11.28066    8.38497    3.96503
       H    13.99270   17.09048    5.04451
       O    14.37365   16.29266    5.35417
      H1    13.89379   15.60607    4.87600
       H    19.14504   10.40189   -0.31049
       O    19.46364   10.86964   -1.11497
      H1    18.75570   11.00388   -1.75261
       H    12.57024    8.33369   -0.61873
       O    13.46792    8.46325   -0.19288
      H1    13.86015    7.61806   -0.37279
       H    12.20540   17.31239    9.25789
       O    11.92447   17.07712    8.38038
      H1    11.03038   16.65922    8.47464
       H    13.66866   15.60914    6.83695
       O    13.35790   15.06171    7.56333
      H1    12.74754   15.68437    7.98869
       H    13.86429   11.92288    8.06485
       O    13.26018   11.11413    7.96650
      H1    13.69990   10.65704    7.26438
       H    11.97213   12.33375    6.51745
       O    11.57487   13.17955    6.36478
      H1    12.18038   13.68493    6.90460
       H    12.79437   13.56850    4.85822
       O    13.45229   14.04409    4.35897
      H1    13.50381   13.39033    3.59940
       H    15.62983   12.86416    7.44759
       O    15.24991   13.19374    8.24228
      H1    14.71950   13.90061    7.90533
       H    18.28667    7.39379    8.40593
       O    18.65757    8.03216    7.75781
      H1    18.82924    7.39494    7.03716
       H    18.32902   13.56078    8.94791
       O    18.60953   12.94207    9.59917
      H1    19.16851   12.39883    8.99009
       H     8.80072   10.87953    5.32225
       O     8.06129   10.57939    5.84316
      H1     8.18679   10.70019    6.73448
       H    17.60457   18.40834    8.35541
       O    16.79165   17.79380    8.34153
      H1    16.93752   17.31742    7.51547
       H    10.82304   12.39555    9.99579
       O    10.69511   11.57810    9.37281
      H1    11.55676   11.62530    8.87460
       H    17.37458   16.54133    2.28586
       O    17.72672   17.45204    2.04714
      H1    17.03016   18.07919    1.99704
       H    16.40478    8.10475    4.07715
       O    16.72187    8.21320    3.18945
      H1    17.67155    8.45134    3.32697

