180
frame 8 | Written by MDAnalysis XYZWriter (release 2.4.3)
       H     0.48892   14.96580  -12.18231
       O     0.59354   15.96001  -12.15081
      H1     0.85596   16.14159  -13.09791
       H     6.63097   13.18616  -11.77272
       O     5.98566   13.79957  -11.35536
      H1     5.26915   13.91005  -11.98979
       H    -2.37745   15.99933   -1.47278
       O    -2.44532   16.93607   -1.26811
      H1    -1.73851   16.98351   -0.59703
       H     3.33395   10.84990  -12.49556
       O     4.28492   10.80569  -12.39999
      H1     4.41392   10.42841  -11.52495
       H    -3.42692   17.75477  -12.53536
       O    -4.29304   18.25609  -12.47341
      H1    -4.30781   18.66915  -13.33992
       H    -5.23958   18.17538   -8.37051
       O    -4.24958   18.13866   -8.42950
      H1    -3.78665   18.57479   -7.64766
       H    -2.94144   10.84781   -7.64198
       O    -3.26192   10.57643   -8.53430
      H1    -2.63206   11.14259   -9.01272
       H    -3.75565   16.66896   -4.40435
       O    -3.10284   15.97856   -4.30439
      H1    -3.70855   15.23867   -4.02366
       H     0.21757    8.04600   -8.58626
       O     0.10215    8.19997   -7.62777
      H1     0.08164    9.19379   -7.61772
       H    -5.30586   12.39112   -7.47923
       O    -4.61479   12.90493   -7.07805
      H1    -5.11299   13.45014   -6.42809
       H     1.17708   15.35087   -1.88711
       O     1.64104   16.17161   -1.96093
      H1     0.85425   16.78179   -1.95855
       H    -5.74880   17.96346   -4.83233
       O    -5.51253   17.17064   -4.39517
      H1    -5.93044   16.46176   -4.94402
       H     3.16417   19.27365   -4.17061
       O     2.16739   19.29933   -4.11690
      H1     2.03804   18.48859   -4.58558
       H     2.12127    7.94187  -10.00097
       O     1.24302    8.38273  -10.20537
      H1     1.01153    7.80702  -10.99045
       H     2.20183   16.64173  -11.26125
       O     2.87237   17.36500  -11.37458
      H1     2.23923   18.03906  -11.72877
       H    -4.80557   16.02165  -11.99952
       O    -5.58822   15.49808  -12.30133
      H1    -5.90274   15.99707  -13.09095
       H     3.56960   11.74954   -2.01627
       O     3.50477   12.05064   -2.90226
      H1     3.25136   11.29031   -3.43149
       H    -1.79295   16.94312   -3.98906
       O    -1.19240   17.72003   -4.04319
      H1    -0.52004   17.46819   -4.65920
       H    -4.47028   14.26447   -1.98593
       O    -4.13974   13.88646   -2.86528
      H1    -3.13109   13.90050   -2.69249
       H     1.21820   13.50247   -8.08575
       O     0.34414   13.78765   -8.32253
      H1     0.13867   14.53414   -7.76234
       H     1.94633   12.87405   -2.62486
       O     1.19386   13.17819   -2.12407
      H1     1.11740   12.50540   -1.44812
       H     1.52821    9.78589  -11.73826
       O     1.16859   10.50506  -12.26466
      H1     1.04152   11.29490  -11.70469
       H    -0.81004   13.67629   -2.20745
       O    -1.39124   14.40974   -2.51684
      H1    -1.29999   14.28157   -3.49372
       H    -1.60951   12.29560  -10.58005
       O    -1.03481   11.94584   -9.86149
      H1    -0.68371   12.80529   -9.50928
       H     2.49802   14.27722   -5.23181
       O     2.28733   13.75002   -6.01053
      H1     1.46557   13.36199   -5.68180
       H    -1.03932   13.66027   -5.95334
       O    -0.72084   13.13788   -5.15842
      H1    -1.47826   12.58425   -5.01836
       H    -3.31072   16.89309   -9.05709
       O    -2.65831   16.26043   -9.37994
      H1    -3.22778   15.51244   -9.56323
       H    -1.77875   15.72021   -7.91709
       O    -1.30395   15.56099   -7.12193
      H1    -2.08305   15.65833   -6.48983
       H     4.09150   17.21193   -5.92285
       O     3.22925   17.15195   -5.54193
      H1     2.77831   16.63960   -6.27131
       H     4.26027    9.72097   -9.33728
       O     4.90465   10.35422   -9.73278
      H1     4.45408   11.23362   -9.69799
       H     6.07816   11.37495   -6.42271
       O     6.92568   11.16338   -6.81350
      H1     6.73758   11.12943   -7.74015
       H    -0.43940   19.03607  -10.19513
       O    -0.06078   18.60499   -9.43050
      H1     0.63406   19.24966   -9.18579
       H    -5.09637   13.97006   -9.65081
       O    -4.07456   13.94637   -9.72619
      H1    -3.94102   13.60157   -8.79890
       H    -7.08620   14.46176   -5.70801
       O    -6.20212   14.61127   -5.30635
      H1    -6.27389   14.08015   -4.51338
       H    -7.00426   15.73311   -9.12235
       O    -6.73911   14.98024   -9.62897
      H1    -6.55536   15.37140  -10.48140
       H    -0.52499   13.06550  -12.03821
       O     0.46116   13.18331  -12.29626
      H1     0.25304   13.24471  -13.24091
       H    -1.00039   16.36343  -11.83314
       O    -1.98838   16.59286  -11.93774
      H1    -2.29092   16.43683  -11.02884
       H     0.33258   11.30318  -15.14756
       O    -0.31532   10.73906  -14.68542
      H1    -0.07490   10.77078  -13.73813
       H    -3.07163   12.38680  -12.67793
       O    -2.56028   12.95954  -12.03246
      H1    -3.22004   13.01225  -11.33368
       H    -3.78294    8.99736   -8.82841
       O    -4.17997    8.18251   -9.25509
      H1    -5.05465    8.24769   -8.83881
       H     6.30426   14.87531   -9.95257
       O     6.04348   15.51197   -9.23985
      H1     6.49546   15.24213   -8.44158
       H    -1.09904   18.39435  -12.01938
       O    -0.71647   19.27246  -12.16757
      H1    -1.47816   19.89492  -12.22249
       H    -3.81554   12.57980   -4.27806
       O    -3.42099   11.81405   -4.75585
      H1    -3.87945   11.82793   -5.58420
       H    -4.57087   10.92609  -10.97202
       O    -4.52586   10.16471  -11.49620
      H1    -4.60414    9.42765  -10.86626
       H     4.14461   18.55983  -10.94048
       O     4.51748   19.46816  -10.89408
      H1     5.48016   19.35601  -11.21007
       H     8.15369   14.56086   -7.56698
       O     7.27966   14.58410   -7.12814
      H1     7.31159   13.67732   -6.85999
       H    -2.58919   18.94196   -5.06281
       O    -3.20843   18.86591   -5.85435
      H1    -3.95823   19.27080   -5.42329
       H    -0.38962   18.29964   -2.40576
       O     0.27892   18.76778   -1.88535
      H1     0.90874   18.82924   -2.62454
       H     4.30721   15.04207  -13.43414
       O     3.86640   14.27681  -13.03838
      H1     2.99031   14.54086  -12.69101
       H     4.45998   13.62171   -8.71087
       O     4.14825   13.10964   -9.44009
      H1     4.78891   13.19608  -10.11483
       H     2.75208   15.07205   -3.38196
       O     3.59919   15.08109   -3.78320
      H1     3.51208   15.98958   -4.10159
       H     3.98797   16.77346  -12.76342
       O     4.68374   16.91007  -13.51489
      H1     4.32014   17.71108  -13.98318
       H     0.96756   17.42245   -6.65949
       O     0.07565   17.61035   -6.39090
      H1    -0.53819   16.97412   -6.86970
       H     1.76884    9.73689   -3.25950
       O     2.11924    9.99353   -4.11228
      H1     2.29400    9.11332   -4.38178
       H     3.87842   12.39078   -5.92413
       O     4.45953   11.80374   -6.47839
      H1     3.90016   11.06570   -6.62328
       H     4.91166   18.64026   -9.43075
       O     4.93036   18.16745   -8.57669
      H1     5.16906   17.27960   -8.90358
       H     5.66104   18.27301   -6.49667
       O     5.87896   17.61123   -5.88003
      H1     5.43088   17.94181   -5.10012
       H     1.83567    9.02127   -7.27189
       O     2.43117    9.72527   -7.52652
      H1     1.95861   10.57349   -7.44794
       H     1.85864   15.75615   -8.63555
       O     2.47184   16.27740   -8.07206
      H1     2.81034   16.97860   -8.65422
       H    -0.07720   11.66263   -7.84575
       O     0.08455   11.03467   -7.14174
      H1    -0.39411   11.46495   -6.44271

