180
frame 3 | Written by MDAnalysis XYZWriter (release 2.4.3)
       H   -13.25858    1.06491   -9.83493
       O   -12.65025    1.83284   -9.60932
      H1   -12.79773    2.48112  -10.34023
       H   -16.04268    6.05313   -4.34266
       O   -16.67228    5.99561   -3.59301
      H1   -16.13710    5.65778   -2.83807
       H   -18.27201   11.47028   -7.25623
       O   -17.78723   11.67042   -8.06334
      H1   -17.60862   12.61922   -7.89936
       H   -15.41608   -4.21119   -3.36495
       O   -15.39461   -3.47999   -2.74975
      H1   -14.95644   -3.91545   -1.98044
       H   -12.77106    5.07489   -8.55210
       O   -13.40653    5.29355   -7.84229
      H1   -13.78146    4.37663   -7.76916
       H   -17.06827    1.15390   -7.64700
       O   -17.97794    0.86206   -7.78492
      H1   -18.02410   -0.09223   -7.62585
       H   -13.63038    1.13016   -6.76747
       O   -13.23218    1.94753   -7.00606
      H1   -12.99249    1.92793   -7.94415
       H   -16.70567    3.04345  -12.37826
       O   -16.67440    2.10134  -12.27453
      H1   -17.26795    2.03907  -11.49979
       H   -12.86908    9.67526   -1.74189
       O   -13.01080    8.73186   -1.80057
      H1   -13.43980    8.65030   -2.65881
       H   -12.21100    1.96604   -3.69457
       O   -12.14341    1.33977   -2.93325
      H1   -11.64658    0.56566   -3.32048
       H   -14.45479    1.26607    3.03156
       O   -14.32138    1.39585    4.00143
      H1   -14.03048    2.34167    3.97426
       H   -15.02464    3.56383    1.47535
       O   -14.72836    2.65682    1.33597
      H1   -15.48338    2.05725    1.13260
       H   -14.56537    1.52598   -1.41436
       O   -15.18143    2.24085   -1.60946
      H1   -14.79479    2.89358   -1.00639
       H   -13.23823    6.74245   -5.09198
       O   -13.21919    5.77851   -5.06828
      H1   -13.28658    5.71623   -6.08133
       H   -19.01732   -2.19089    1.08875
       O   -18.93538   -2.49609    0.14050
      H1   -19.82829   -2.49569   -0.16518
       H   -18.68434    2.93895   -9.88722
       O   -18.66793    2.03057  -10.29815
      H1   -18.20010    1.61076   -9.51165
       H   -15.01778   10.26510   -8.59766
       O   -15.08811   11.17006   -8.19882
      H1   -15.97383   11.42127   -8.24080
       H   -16.22408    7.47183   -8.98334
       O   -17.00679    7.28526   -8.49004
      H1   -17.66890    7.53553   -9.13902
       H   -15.76180   -0.07291   -5.30446
       O   -15.18251   -0.28934   -6.08253
      H1   -14.40436   -0.76202   -5.63984
       H   -18.23041   -3.12568   -5.99054
       O   -18.95102   -3.18450   -5.30463
      H1   -18.55217   -3.76631   -4.65680
       H   -12.61595    1.20036    0.85635
       O   -12.73231    0.25502    1.02255
      H1   -12.38138   -0.13578    0.22256
       H   -18.10417    9.16618    4.01550
       O   -18.67464    8.52812    3.60542
      H1   -18.74663    8.83978    2.70888
       H   -16.63810   10.36533   -2.49806
       O   -15.89371    9.95038   -2.01420
      H1   -15.30046    9.72237   -2.71449
       H   -17.42581    0.88149    0.27787
       O   -16.89924    0.96327    1.09493
      H1   -16.50702    0.05153    1.02973
       H   -19.18003    4.92173   -6.58466
       O   -19.60793    5.63018   -6.08415
      H1   -19.43390    5.41262   -5.16469
       H   -15.53816   -1.48638  -10.05242
       O   -16.50225   -1.72055   -9.97706
      H1   -16.64860   -2.58487  -10.43811
       H   -17.25138    3.78443   -7.53060
       O   -18.05362    4.35052   -7.75743
      H1   -17.63270    5.10655   -8.25201
       H   -16.43305    7.52822   -6.90345
       O   -16.31213    7.80354   -5.95994
      H1   -17.23633    7.87376   -5.63280
       H   -18.88733   11.03806   -2.72212
       O   -18.20183   10.75689   -3.35985
      H1   -18.61931   10.99187   -4.22345
       H   -17.10000   -2.14679   -7.97200
       O   -16.80210   -2.26947   -7.05545
      H1   -16.17280   -1.50927   -7.01130
       H   -19.35409    6.73510  -10.45230
       O   -19.10848    7.63319  -10.47053
      H1   -19.81664    8.07687   -9.97392
       H   -14.40628   -0.70918    1.56651
       O   -15.10201   -1.35437    1.61655
      H1   -14.72936   -1.86696    2.38528
       H   -17.99012    3.51664    3.20739
       O   -18.11154    3.44569    2.26553
      H1   -17.78464    2.55165    2.12737
       H   -12.29131    4.21744   -5.05853
       O   -11.71723    3.47304   -4.77662
      H1   -10.84901    3.92857   -4.89684
       H   -14.82652   10.02206    0.42231
       O   -13.97301    9.92514    0.82629
      H1   -14.02669   10.34453    1.69191
       H   -14.88187    2.14800   -6.93510
       O   -15.77926    2.56897   -6.91815
      H1   -15.66708    2.86299   -5.98465
       H   -19.77883   11.61578   -6.45918
       O   -19.16051   11.08766   -5.88720
      H1   -19.68174   10.29601   -5.95408
       H   -17.56470   -1.98605   -0.84383
       O   -17.16158   -1.54701   -1.63559
      H1   -16.39776   -2.13001   -1.81704
       H   -15.67194    6.17335    1.26006
       O   -14.87635    5.93952    1.74074
      H1   -14.18359    6.21902    1.11720
       H   -19.99031    0.28344    4.50274
       O   -19.57800    0.54863    3.67515
      H1   -18.72111    0.87083    3.97613
       H   -11.09437    2.46876   -0.84391
       O   -11.50512    2.65427   -0.03118
      H1   -10.88470    2.43056    0.66265
       H   -15.28603    4.44608    4.29850
       O   -14.37576    4.30598    4.07013
      H1   -14.23215    4.72954    3.24652
       H   -18.32736    8.75057    0.41175
       O   -18.75253    9.50111    0.90309
      H1   -18.01199   10.11136    1.07651
       H   -10.11071    2.62767   -6.34188
       O   -10.46187    1.99833   -7.02601
      H1   -11.40095    2.04617   -6.80974
       H   -15.07233    2.70624   -3.52388
       O   -15.40594    3.31929   -4.24129
      H1   -16.31888    3.46833   -4.00860
       H   -15.37897    7.51246    2.78046
       O   -15.57812    8.07486    3.57629
      H1   -16.01570    8.82064    3.19917
       H   -17.67251    7.08977   -1.28606
       O   -18.00029    7.21786   -0.38144
      H1   -18.62499    6.52401   -0.22699
       H   -18.44276   -1.51118   -4.67164
       O   -18.03379   -0.72666   -4.23015
      H1   -17.64712   -1.05702   -3.38090
       H   -13.09104    7.69724   -0.38786
       O   -12.95609    7.27862    0.44877
      H1   -13.55912    7.76372    1.02951
       H   -14.92859   11.38963   -6.47078
       O   -14.99607   11.55255   -5.48561
      H1   -15.24209   10.68774   -5.12258
       H   -17.57238    7.58381   -3.32444
       O   -18.33661    8.08025   -3.63641
      H1   -18.23560    9.08759   -3.34615
       H   -17.85008    9.68820  -10.68281
       O   -17.18460   10.27129  -10.30985
      H1   -17.64554   10.56483   -9.50905
       H   -13.48228    9.05230   -4.67917
       O   -14.28638    8.66015   -4.26240
      H1   -14.85170    8.30189   -4.92095
       H   -12.21309    3.66253   -1.44855
       O   -11.94588    4.40694   -2.07376
      H1   -11.89795    3.88848   -2.92012
       H   -17.42189   -5.71436   -3.53133
       O   -17.79025   -4.83429   -3.59653
      H1   -17.08518   -4.27508   -3.27966
       H   -12.29525   -2.88059   -1.93918
       O   -12.47023   -3.00642   -2.83872
      H1   -13.42908   -2.79413   -2.86402
       H   -13.88921    5.30203   -2.16162
       O   -14.82702    5.00696   -1.94077
      H1   -15.09059    4.26550   -2.56300
       H   -18.76282   -0.14743   -1.26988
       O   -18.76294    0.77163   -0.93960
      H1   -19.69074    1.02914   -0.84710
       H   -17.26886   12.68515   -3.70383
       O   -16.47030   13.14802   -3.58430
      H1   -15.89615   12.86511   -4.34803
       H   -19.57561    4.00832   -3.11462
       O   -18.95181    4.04670   -3.86686
      H1   -18.39154    4.91641   -3.76459

