180
frame 11 | Written by MDAnalysis XYZWriter (release 2.4.3)
       H    -5.71686   -7.30206   -9.79675
       O    -6.13586   -6.43224   -9.80452
      H1    -6.53418   -6.32178   -8.92829
       H   -11.48977  -18.71193   -7.60799
       O   -11.67356  -18.44044   -8.52680
      H1   -11.54163  -19.34328   -8.95709
       H   -12.37607  -16.81677   -5.69914
       O   -11.52285  -17.23397   -5.80124
      H1   -10.91063  -16.78913   -5.18332
       H    -5.91167  -13.38492  -14.24939
       O    -6.80574  -13.22439  -13.78100
      H1    -6.71966  -14.02487  -13.22814
       H    -4.07398  -15.32785   -6.03092
       O    -4.50628  -15.64578   -5.15819
      H1    -4.04327  -15.13686   -4.49345
       H    -2.24111  -12.90308   -8.44238
       O    -2.76341  -13.41799   -7.79519
      H1    -3.22574  -12.73510   -7.28646
       H    -7.40801   -7.23143   -6.34340
       O    -8.00360   -7.90642   -5.99005
      H1    -7.45775   -8.69072   -6.07688
       H    -9.43528   -6.20405   -8.85849
       O    -9.23090   -5.29696   -9.10425
      H1    -9.84477   -5.18297   -9.86668
       H    -9.30472  -12.05827  -12.25518
       O    -8.73349  -11.45273  -12.81726
      H1    -8.32532  -12.12456  -13.33311
       H    -5.70858   -9.73293  -13.85372
       O    -5.49335   -9.77510  -14.83020
      H1    -4.75471   -9.13725  -14.71253
       H    -9.14286  -11.52853   -1.20111
       O    -8.89201  -12.19019   -1.84575
      H1    -8.29225  -12.71934   -1.23984
       H    -3.62745  -10.36857   -7.86071
       O    -4.20828  -10.78040   -7.19443
      H1    -3.65312  -10.61454   -6.40161
       H   -13.59463  -11.69002   -8.59985
       O   -13.63991  -12.55846   -9.04622
      H1   -12.88992  -12.97517   -8.59349
       H    -5.45983  -11.90106   -3.38908
       O    -5.66512  -12.83746   -3.37252
      H1    -5.90900  -13.12724   -4.26583
       H    -2.87425  -18.00023   -9.34926
       O    -3.80938  -17.78077   -9.43132
      H1    -4.13494  -18.63268   -9.13094
       H   -10.87896  -17.11244   -9.55801
       O   -10.22496  -16.52663  -10.05123
      H1   -10.05114  -15.75383   -9.46314
       H    -9.29925  -10.31698   -5.67372
       O   -10.04414  -10.42382   -6.28948
      H1   -10.66062  -10.84723   -5.60413
       H    -6.86174  -19.00416   -9.18972
       O    -6.25892  -19.66913   -9.63628
      H1    -6.80324  -20.15056  -10.33895
       H    -7.73672   -8.39010  -12.54303
       O    -7.28430   -9.23462  -12.52931
      H1    -8.01885   -9.85719  -12.76620
       H    -5.08618  -16.44399   -9.50297
       O    -5.92093  -15.95551   -9.45184
      H1    -5.68537  -15.07751   -8.99466
       H    -4.15745  -10.22735  -10.92105
       O    -3.69794  -11.01522  -11.22776
      H1    -3.66941  -10.91282  -12.18829
       H    -8.04681  -11.31040   -3.13614
       O    -7.93221  -10.41166   -3.49758
      H1    -8.35160   -9.98121   -2.72947
       H    -9.96646  -14.45010   -4.88354
       O   -10.09329  -13.84089   -5.58942
      H1   -10.19780  -13.04868   -5.11293
       H    -3.79802  -15.48224  -12.73179
       O    -2.83450  -15.66150  -12.59724
      H1    -2.96499  -16.60577  -12.45736
       H    -1.88651  -14.18432  -12.59262
       O    -1.43289  -13.31737  -12.44041
      H1    -1.73290  -13.17663  -11.52826
       H    -7.02045  -18.97824   -3.62957
       O    -6.11019  -18.70312   -3.82366
      H1    -6.30212  -17.87713   -4.33181
       H   -13.11921  -11.04917  -11.61404
       O   -13.15013  -11.15327  -12.57665
      H1   -13.53284  -10.21562  -12.75662
       H    -9.07610  -16.14594   -3.15880
       O    -9.38121  -16.13202   -4.08566
      H1    -8.45228  -16.24833   -4.46566
       H   -12.97939   -9.23452   -8.83972
       O   -12.74693   -9.89764   -9.48456
      H1   -11.87053   -9.64799   -9.78928
       H    -7.29277  -14.39717  -15.13037
       O    -7.68622  -14.63180  -16.00756
      H1    -8.03653  -13.76926  -16.25183
       H    -8.24103  -11.07024   -8.08744
       O    -8.54230  -11.35584   -8.95633
      H1    -7.69475  -11.25628   -9.52190
       H    -8.02299  -13.22703   -8.60708
       O    -8.47054  -14.04020   -8.37469
      H1    -9.22497  -13.70386   -7.80596
       H    -6.76726  -11.85190  -11.72615
       O    -6.49419  -11.86127  -10.83309
      H1    -5.60433  -11.48352  -10.95138
       H   -11.59926  -11.77718   -3.38584
       O   -11.33530  -11.81209   -4.29618
      H1   -12.06445  -11.34534   -4.67797
       H   -12.02885  -11.28465  -13.75175
       O   -11.20514  -11.37909  -14.31056
      H1   -10.44232  -11.54414  -13.70536
       H    -6.36039  -15.48491  -11.96751
       O    -5.61297  -15.47006  -12.56327
      H1    -5.82639  -16.25023  -13.06819
       H    -6.23889  -10.28759   -6.94719
       O    -7.08364  -10.52133   -6.56504
      H1    -6.93681  -11.32740   -6.08182
       H    -8.39385  -15.70031  -11.86028
       O    -8.04836  -14.95292  -11.35248
      H1    -7.67260  -15.46464  -10.59171
       H   -11.74389   -8.55324   -4.44543
       O   -11.01895   -7.94158   -4.39810
      H1   -10.39072   -8.28176   -4.97090
       H   -13.03596  -13.22526  -12.58569
       O   -12.59893  -13.99707  -12.80939
      H1   -11.80851  -13.90519  -12.27545
       H    -8.54834  -17.17149   -8.41203
       O    -7.73257  -17.44667   -8.01530
      H1    -7.15570  -16.98419   -8.62369
       H    -6.47242  -13.19940   -0.58423
       O    -6.74435  -13.94386   -1.12938
      H1    -6.45770  -13.63762   -2.01796
       H    -7.22802  -13.83086   -6.53085
       O    -6.63853  -13.27455   -5.95733
      H1    -5.95426  -13.23128   -6.69133
       H   -12.73046  -13.60440   -4.93049
       O   -13.48217  -14.21022   -4.81619
      H1   -14.16612  -13.57754   -4.51301
       H    -9.65175   -9.31435  -10.86392
       O   -10.19267   -9.63267  -10.17099
      H1    -9.59434  -10.30231   -9.85243
       H    -9.98803   -8.54290   -8.60251
       O    -9.89398   -7.82389   -7.91654
      H1    -9.50861   -8.17883   -7.13481
       H    -9.86923  -14.42307  -10.86100
       O   -10.52267  -13.73152  -11.04733
      H1   -10.77851  -13.37639  -10.19201
       H    -3.58411  -10.01356   -4.40742
       O    -2.83036  -10.15518   -4.96206
      H1    -2.61512   -9.24383   -5.22582
       H   -13.91588  -16.73897  -11.34419
       O   -12.98978  -16.89807  -11.52429
      H1   -12.60822  -16.13610  -11.07473
       H    -5.16608  -10.02819   -2.42270
       O    -5.07730  -10.08559   -3.41548
      H1    -6.04291  -10.12415   -3.58740
       H    -4.87605   -8.33589  -11.22394
       O    -4.95768   -8.75663  -10.35933
      H1    -4.15674   -8.42205   -9.89501
       H    -9.35567  -17.28168  -13.25931
       O    -8.93743  -17.30014  -12.37628
      H1    -9.59052  -17.37148  -11.73521
       H   -13.77597  -11.83657   -6.12142
       O   -13.12657  -11.17246   -6.25929
      H1   -13.51284  -10.35039   -5.96317
       H    -4.46053  -13.37480   -8.46325
       O    -5.39178  -13.44013   -8.64050
      H1    -5.43474  -12.91161   -9.47863
       H    -2.33605  -10.52983  -10.10290
       O    -1.84092   -9.98338   -9.50127
      H1    -1.29174  -10.55324   -8.97046
       H    -8.15323  -18.96997  -12.29630
       O    -7.61584  -19.80284  -12.39010
      H1    -6.76258  -19.58283  -12.78423
       H   -12.13465  -15.41003   -7.52953
       O   -11.74682  -14.54464   -7.65575
      H1   -11.06495  -14.47620   -6.92884
       H    -7.30995  -16.65379   -6.34490
       O    -7.09166  -16.48091   -5.41749
      H1    -6.25778  -15.97028   -5.53855
       H    -9.28706  -19.54439   -3.80867
       O    -8.69720  -18.99466   -3.28857
      H1    -9.11794  -18.15394   -3.53659
       H    -4.15827  -19.02847  -12.43422
       O    -3.55227  -18.46179  -11.91378
      H1    -3.95808  -18.24266  -11.07330

