180
frame 7 | Written by MDAnalysis XYZWriter (release 2.4.3)
       H     5.82471    0.42328    5.41484
       O     6.26612   -0.16794    6.05563
      H1     5.58073   -0.75900    6.44724
       H     8.75107    8.24030    1.07386
       O     8.79187    8.38575    2.03269
      H1     8.94835    9.34011    2.20205
       H     8.46082    0.95622   -2.63976
       O     8.51967    1.02133   -3.59926
      H1     7.74876    0.43398   -3.88791
       H     7.09059    3.12185   -5.63062
       O     7.87934    3.31221   -5.09633
      H1     8.01087    2.46403   -4.64896
       H     9.29643    8.69255    5.61864
       O    10.04480    8.12219    5.59813
      H1     9.97697    7.74199    6.48523
       H     8.02350    3.10166    5.05582
       O     7.66949    2.43695    4.41389
      H1     8.37554    1.77919    4.64691
       H     8.70037   11.67881    1.45121
       O     7.81278   11.39972    1.04350
      H1     7.33356   12.31999    1.09162
       H    13.85409    4.55094   -1.29705
       O    13.67929    3.62725   -1.62693
      H1    12.68651    3.66290   -1.61641
       H     1.74417    0.98045    5.67538
       O     2.15377    1.88280    5.73772
      H1     3.04538    1.68989    5.37303
       H     2.34384    6.84388    1.80176
       O     2.10838    7.42059    2.54503
      H1     1.57520    8.09523    2.09616
       H     6.67126    5.95501    0.19818
       O     6.58482    5.49118    1.01844
      H1     5.68739    5.18253    1.02997
       H     5.77524    9.69875   -0.42104
       O     6.20851    9.61718   -1.32863
      H1     6.48266   10.58698   -1.48212
       H    10.98427    0.11633   -0.60863
       O    10.46145    0.49206    0.17050
      H1    11.09747    1.15156    0.46715
       H     3.96067   10.93120    0.03833
       O     3.26490   11.46099   -0.33693
      H1     3.17422   12.12278    0.40454
       H    13.23520    6.76300    2.92171
       O    14.05621    6.56115    3.35687
      H1    14.51917    7.42156    3.21930
       H     6.82020    2.57735   -2.39867
       O     6.49662    3.47315   -2.70970
      H1     6.94447    3.52386   -3.55149
       H     4.12756    6.64714   -4.39923
       O     3.99343    6.21139   -3.52176
      H1     4.85652    6.27585   -3.16378
       H    11.86198    4.87293    0.33599
       O    11.09269    5.19127    0.78647
      H1    11.26532    4.74161    1.63204
       H     9.95647    3.96248   -1.56491
       O    10.75859    3.61402   -1.90415
      H1    10.77491    3.94758   -2.81477
       H    11.45935    5.29539    4.63790
       O    11.37580    4.56777    4.01630
      H1    12.18424    4.05809    4.15529
       H     9.26166    5.06736    7.09480
       O     9.01291    4.24187    6.70303
      H1     9.83758    3.80419    6.72996
       H     8.94740    1.05573   -0.45599
       O     8.08194    1.40736   -0.84434
      H1     8.27460    2.30766   -0.47240
       H     7.31517    6.42505   -1.62045
       O     6.45704    6.10382   -1.92113
      H1     6.67875    5.17312   -2.11332
       H     7.44934    7.71228    2.87935
       O     6.66238    7.15794    3.25375
      H1     6.45124    6.74649    2.39978
       H     3.34177    3.71844    1.36301
       O     3.85157    4.48890    1.48171
      H1     3.87505    4.63849    2.40782
       H     9.44551    4.72997    0.16527
       O     8.63127    4.27245   -0.12480
      H1     8.06059    4.63245    0.66104
       H     5.30730    2.53350    6.14550
       O     5.29406    2.92930    7.05201
      H1     5.99286    2.32866    7.41217
       H     8.90526   11.16403   -0.52808
       O     9.68305   11.45026   -1.00800
      H1     9.33878   11.48993   -1.89179
       H     1.71718    2.23058    4.10573
       O     1.45178    2.57970    3.25228
      H1     1.18764    1.75933    2.76341
       H     2.73258    6.51740   -0.60374
       O     1.99683    6.32191   -0.02623
      H1     2.18342    5.45429    0.34897
       H    11.39106    6.62723    1.76489
       O    11.66775    7.38958    2.36555
      H1    10.80767    7.81126    2.25468
       H    -0.42063    3.46832   -1.19376
       O    -0.45340    4.45560   -1.11448
      H1     0.49520    4.55767   -1.10551
       H     1.49627    4.95061    3.99065
       O     0.80501    5.28621    4.57164
      H1     1.22228    6.04618    4.97693
       H     2.92516    3.31871   -1.92988
       O     2.49401    3.29895   -0.99491
      H1     1.88065    2.53675   -1.05306
       H    10.61798    8.55845   -2.74274
       O    11.12212    8.81647   -1.95569
      H1    11.46209    9.70885   -2.10782
       H     3.74991   11.34356    5.08470
       O     4.71152   11.08664    4.98676
      H1     4.61906   10.30427    4.40992
       H    11.30180    2.32860    2.12766
       O    12.09209    2.28459    1.54085
      H1    12.83934    1.95023    2.00472
       H     6.13008   10.54293    1.18743
       O     5.23687   10.26654    1.03274
      H1     5.03082    9.83985    1.88530
       H     9.85260    8.73578   -5.09948
       O     9.57960    8.04597   -4.45200
      H1     9.71455    7.23380   -4.97092
       H     5.22364    8.78124    7.66451
       O     4.61935    8.04350    7.62940
      H1     5.21703    7.34045    7.53345
       H    11.23542    9.19025    4.39889
       O    11.78476    9.70274    3.78970
      H1    11.98467    9.04944    3.12959
       H     9.44475    7.59845   -0.83604
       O     8.49494    7.56955   -0.74858
      H1     8.21386    8.12852   -1.52943
       H     4.49549    8.67959   -1.43068
       O     3.77565    8.05690   -1.38110
      H1     3.76492    7.53117   -2.18290
       H     3.95401   -1.07137    2.26451
       O     3.47232   -0.23457    1.97476
      H1     2.61683   -0.26344    2.45603
       H     9.91050    3.74172    3.17862
       O     9.56129    2.87216    2.69743
      H1     8.75027    2.80614    3.22607
       H     3.61896    3.98726   -3.62541
       O     3.80993    3.08558   -3.42290
      H1     4.68426    3.16960   -3.08185
       H     3.37069   -0.23599    0.43442
       O     3.11892    0.09329   -0.53921
      H1     3.95533    0.64327   -0.65730
       H     0.59536    7.79587   -2.33792
       O     1.06186    8.50881   -1.89898
      H1     1.83221    8.03845   -1.53818
       H     8.98281   -0.53988    3.58899
       O     9.72662   -0.08668    4.02533
      H1    10.25049    0.16775    3.27838
       H    11.19458    0.93196   -3.34458
       O    11.67909    0.95097   -2.53606
      H1    11.17041    1.67756   -2.07506
       H     3.01634    7.81838    5.89726
       O     2.11462    7.67494    5.63114
      H1     1.98875    8.16388    4.81401
       H     5.08258    8.17582    3.01695
       O     4.32516    8.75196    3.13298
      H1     3.47299    8.28353    2.96625
       H     5.29540    2.57180   -0.19247
       O     5.23656    1.62230   -0.35589
      H1     6.15726    1.25711   -0.18408
       H     3.23087    4.66237    4.96686
       O     3.64643    5.33446    4.39780
      H1     4.60322    5.16904    4.60497
       H     0.71016    1.12151   -1.96237
       O     0.77921    1.11090   -1.00787
      H1     1.66208    0.76611   -0.86211
       H     7.59714    5.27777    5.84937
       O     6.76238    5.33618    5.38377
      H1     6.86563    6.12424    4.82468
       H     9.45122   10.99208    4.64403
       O     8.87932   10.58639    5.30329
      H1     8.77499   11.30062    5.94554
       H     2.36637    9.23891   -3.22803
       O     2.87710    9.83339   -3.74629
      H1     2.87820    9.34909   -4.58523
       H     5.87976    2.04608    4.35963
       O     4.91054    1.81425    4.23786
      H1     4.90678    1.49252    3.33819
       H     5.23690   12.43763    2.18875
       O     5.43304   12.73628    3.09602
      H1     5.06866   11.89044    3.54249

