180
frame 7 | Written by MDAnalysis XYZWriter (release 2.4.3)
       H    -1.43540   -9.37007  -14.57099
       O    -1.46417   -8.85827  -13.73458
      H1    -1.18051   -9.57133  -13.11513
       H    -5.42424   -7.37127  -10.88090
       O    -6.33486   -7.14661  -10.52513
      H1    -6.13341   -6.62845   -9.68283
       H    -1.75220   -2.86230  -12.92561
       O    -2.24426   -2.26472  -13.49560
      H1    -2.01462   -1.37129  -13.11431
       H    -1.13181  -12.84988   -8.55962
       O    -1.36014  -12.82541   -9.48027
      H1    -2.00988  -12.13959   -9.41359
       H    -8.02234   -7.12445   -5.42401
       O    -7.49055   -7.64078   -4.79495
      H1    -6.65354   -7.37132   -5.13781
       H    -2.49825  -12.43589  -15.17539
       O    -2.75966  -11.86149  -14.45425
      H1    -2.54089  -12.47857  -13.67528
       H     0.35387   -3.10198   -7.30935
       O     0.95075   -3.12633   -6.55444
      H1     1.16923   -4.10683   -6.63357
       H    -9.26941   -6.33196   -9.32918
       O    -9.59005   -5.40338   -9.21679
      H1   -10.40448   -5.51855   -9.70931
       H    -5.99235   -2.29191  -13.54368
       O    -6.59631   -1.74921  -14.06136
      H1    -6.29879   -0.84321  -13.90603
       H    -8.81670  -11.96580  -13.70948
       O    -8.40830  -11.52664  -14.49570
      H1    -8.31518  -10.69323  -14.04925
       H    -7.10772   -7.73767  -14.83854
       O    -6.99314   -8.57709  -15.24688
      H1    -6.11837   -8.40170  -15.62080
       H    -1.79783   -9.47945   -8.02166
       O    -2.29561  -10.29335   -8.25282
      H1    -1.66264  -10.95661   -8.06952
       H    -2.14508  -10.79966   -3.98876
       O    -2.48732  -11.31348   -4.70950
      H1    -3.36010  -10.90355   -4.92873
       H    -9.61658   -4.98847  -12.54087
       O    -9.18256   -4.48222  -11.83309
      H1    -9.49003   -4.93628  -10.97218
       H     1.67914   -2.49795  -12.62653
       O     1.28947   -2.40446  -11.70698
      H1     1.91628   -2.89266  -11.05577
       H    -7.34501   -4.71040  -12.20457
       O    -6.49691   -5.01237  -12.50690
      H1    -6.34760   -5.69268  -11.83818
       H    -2.15605   -4.51311  -10.55901
       O    -2.58238   -4.86770   -9.78175
      H1    -3.41620   -4.39600   -9.69942
       H     2.30989   -5.23512  -10.68555
       O     1.69843   -5.95456  -10.66952
      H1     1.13180   -5.75033   -9.89198
       H    -0.85260   -7.32206  -13.44300
       O    -0.33881   -6.57514  -12.98334
      H1    -0.13899   -7.01297  -12.14628
       H     1.76914  -11.10651   -9.22010
       O     1.06278  -10.58670   -9.58619
      H1     1.51875  -10.04343  -10.30461
       H     1.83794   -7.89011  -11.45848
       O     2.24113   -8.75519  -11.70467
      H1     1.82710   -8.86393  -12.61027
       H    -1.38903  -12.24475   -6.09129
       O    -0.71204  -12.06695   -6.74750
      H1    -0.05375  -11.53819   -6.25873
       H    -9.81010   -8.81364  -13.17164
       O    -9.38862   -9.36771  -12.54196
      H1    -9.91750  -10.17392  -12.55666
       H    -3.25796   -9.69762  -11.88010
       O    -3.10599  -10.63143  -11.92404
      H1    -3.11050  -10.81103  -12.84315
       H    -2.72045   -6.97649  -14.40684
       O    -3.19459   -6.48638  -13.78697
      H1    -4.07340   -6.55612  -14.11065
       H    -2.39139  -14.28202  -12.53963
       O    -1.99903  -13.40095  -12.31298
      H1    -1.12641  -13.74605  -11.99173
       H    -6.55244  -11.84640   -9.10672
       O    -7.37858  -11.51812   -8.69810
      H1    -6.89257  -10.83783   -8.12237
       H     0.00920   -3.67776  -12.03912
       O    -0.85298   -4.09201  -12.04814
      H1    -0.50412   -4.98300  -12.29440
       H     1.44913   -8.38832  -16.87220
       O     0.97253   -8.16123  -16.03844
      H1     1.14372   -7.22519  -15.87581
       H    -5.70160  -12.41995  -10.74279
       O    -5.12736  -11.78369  -10.31228
      H1    -4.54013  -11.59008  -11.08452
       H     0.71609   -9.57469   -6.22201
       O     0.91878  -10.30842   -5.59977
      H1     0.49979   -9.99221   -4.76354
       H    -1.51886   -2.93154   -7.53703
       O    -0.90209   -2.66688   -8.30054
      H1    -0.94239   -1.71298   -8.29688
       H    -3.94130  -10.25471   -7.87040
       O    -4.85905   -9.88462   -7.84558
      H1    -5.05616  -10.03832   -8.77357
       H    -2.91341   -4.93390  -15.31320
       O    -3.32607   -4.82456  -16.17645
      H1    -3.53532   -3.88947  -16.33771
       H    -8.11467   -2.73023   -8.34905
       O    -8.11377   -3.43150   -7.71402
      H1    -8.80028   -4.08643   -7.91952
       H     1.05482   -8.19760   -7.41506
       O     0.21127   -8.46150   -7.75645
      H1     0.54973   -9.20976   -8.32675
       H    -4.85853  -11.78268   -7.12510
       O    -4.48062  -12.57297   -6.75789
      H1    -4.47233  -13.11930   -7.56495
       H    -1.76500   -9.74710  -17.05075
       O    -1.48839   -8.93892  -16.62360
      H1    -0.55875   -8.92004  -16.54317
       H    -5.18170   -2.04448  -11.04968
       O    -5.41486   -1.59263  -10.23787
      H1    -4.76935   -0.86065  -10.37769
       H    -9.62765   -9.94476  -10.53403
       O    -9.72337  -10.17416   -9.52273
      H1    -9.12203  -10.94083   -9.33198
       H    -6.79419   -4.69922   -8.58242
       O    -5.97880   -5.23728   -8.66500
      H1    -5.38121   -4.63414   -8.20968
       H    -5.52903  -10.37637  -16.55516
       O    -6.19600  -11.06396  -16.78839
      H1    -7.03003  -10.80199  -16.38191
       H    -8.53302   -8.89570   -9.13892
       O    -8.29033   -7.95750   -8.83946
      H1    -7.56420   -7.85008   -9.44864
       H    -2.17152   -3.83984   -5.64659
       O    -1.91671   -4.56114   -6.23398
      H1    -1.34026   -5.06347   -5.66323
       H    -3.22509   -5.74766   -6.13334
       O    -4.15973   -6.08338   -6.05978
      H1    -4.61980   -5.28709   -5.86069
       H    -0.52790   -7.18732   -5.99256
       O    -0.24726   -6.76724   -5.13292
      H1    -0.38313   -7.48514   -4.46456
       H    -5.18946   -9.95514   -5.90758
       O    -4.62821   -9.65782   -5.15574
      H1    -4.13465   -8.90349   -5.50942
       H    -0.82022   -5.34015   -8.83928
       O    -0.04897   -5.93331   -8.66159
      H1    -0.42411   -6.80925   -8.69269
       H     1.39448   -9.58277  -14.69219
       O     1.79070  -10.21480  -14.11451
      H1     1.03470  -10.65378  -13.76282
       H    -3.50045   -7.27407  -12.21757
       O    -3.75576   -7.73575  -11.39932
      H1    -3.43798   -7.10978  -10.69654
       H    -3.20909  -14.26578   -8.73334
       O    -4.18602  -14.18602   -8.92440
      H1    -4.06810  -13.54171   -9.65787
       H    -6.55773   -6.46005   -3.45632
       O    -5.63787   -6.10321   -3.35263
      H1    -5.36293   -5.99996   -4.27121
       H    -3.75674   -2.95500  -12.98484
       O    -4.65468   -3.01798  -12.57068
      H1    -4.97137   -3.88288  -12.70236
       H    -1.14643  -11.32414  -11.82198
       O    -0.26594  -10.97432  -12.02747
      H1     0.19619  -10.95584  -11.16502
       H    -4.80331   -2.12512   -8.44795
       O    -4.37809   -2.85271   -7.97766
      H1    -3.54059   -2.46868   -7.83357
       H    -3.62453   -8.71796  -16.23013
       O    -4.58342   -8.70033  -16.44769
      H1    -4.67918   -8.15745  -17.23836
       H    -5.28381   -3.24307   -6.20239
       O    -5.41832   -3.56594   -5.29560
      H1    -6.36177   -3.43494   -5.16983
       H    -6.94559   -5.76435  -16.49515
       O    -7.65500   -5.56803  -17.05144
      H1    -7.77427   -6.48953  -17.28263
       H     0.84680   -4.54709  -15.32039
       O     1.41024   -5.31980  -14.99003
      H1     0.81284   -5.67343  -14.31745
       H    -4.78107   -5.60199  -15.45397
       O    -5.64229   -6.06472  -15.18813
      H1    -5.95675   -5.43825  -14.48434

