180
frame 31 | Written by MDAnalysis XYZWriter (release 2.4.3)
       H    -1.64857   -7.78964   -0.38443
       O    -2.54402   -8.06190   -0.54039
      H1    -2.99638   -7.89018    0.34461
       H     3.77100   -7.90456   -2.16383
       O     3.69480   -7.57546   -1.24160
      H1     3.11570   -6.76398   -1.21573
       H    -1.03297    0.69446    2.82112
       O    -1.30767    0.91746    3.74304
      H1    -0.91425    1.84367    3.74000
       H     1.68318   -1.14250    0.71731
       O     2.30748   -0.42204    0.85180
      H1     2.04939   -0.12956    1.72138
       H     4.91615   -0.96225   -5.72320
       O     3.96425   -0.74497   -5.51937
      H1     4.01864   -0.40931   -4.58433
       H    -5.41016   -6.36059   -3.29749
       O    -5.15763   -7.30681   -3.09556
      H1    -4.46392   -7.05734   -2.44347
       H    -6.57600   -2.07490    1.43005
       O    -6.02912   -1.85622    0.65857
      H1    -6.12943   -2.73637    0.19798
       H    -6.26680    1.52300   -2.26916
       O    -5.93524    2.12529   -1.56803
      H1    -5.30126    2.69900   -2.02388
       H     1.07198   -6.23081   -1.03418
       O     1.71342   -5.73651   -1.56252
      H1     1.92055   -4.99647   -0.92061
       H    -5.13911   -6.87308    1.59561
       O    -4.61756   -7.65312    1.39441
      H1    -5.45206   -8.20714    1.22485
       H    -6.39940   -4.21160   -1.55579
       O    -5.97264   -4.27204   -0.67641
      H1    -5.14802   -4.73142   -0.97698
       H    -7.88818   -9.29513   -3.30493
       O    -7.30843   -9.04408   -2.58436
      H1    -6.80140   -8.35834   -2.98225
       H    -4.30690   -1.87747    1.00858
       O    -3.31371   -1.73169    1.15853
      H1    -3.29048   -1.43500    2.12487
       H     0.63328   -1.98618    4.35173
       O     0.94403   -2.16862    3.46975
      H1     1.25668   -3.09275    3.47970
       H     4.74634   -1.77450   -2.22179
       O     4.44795   -2.61463   -1.76686
      H1     5.32108   -2.91887   -1.51102
       H     4.57722    0.26788   -2.26277
       O     3.86388   -0.24266   -2.80870
      H1     3.07947    0.10337   -2.35722
       H     3.05030   -7.18677   -6.89328
       O     3.81330   -6.80216   -6.36693
      H1     3.32138   -5.97152   -6.01758
       H    -1.38757   -5.49251    3.27523
       O    -1.71859   -6.12549    2.59487
      H1    -2.27406   -6.76274    3.04489
       H     4.43349   -3.46448   -3.50554
       O     4.96708   -3.70019   -4.25652
      H1     4.21165   -4.10538   -4.82505
       H     0.49240    0.26487   -4.69860
       O     0.77063    1.11103   -5.15741
      H1    -0.05408    1.36223   -5.62899
       H     2.42261   -1.88974   -5.96371
       O     1.60151   -2.06493   -5.51837
      H1     1.76460   -1.68308   -4.65370
       H    -2.80076   -5.09869   -2.18061
       O    -3.42077   -5.52675   -1.61117
      H1    -2.96684   -6.26938   -1.24304
       H    -5.62626   -5.93686    3.60178
       O    -5.88622   -5.29486    2.94931
      H1    -5.04066   -5.10592    2.52862
       H    -7.76666   -2.85173   -6.07567
       O    -7.84579   -2.83571   -5.10653
      H1    -8.74870   -3.03855   -4.96720
       H    -7.29452   -6.19350   -6.22227
       O    -7.09749   -5.95472   -7.17077
      H1    -7.54764   -5.13385   -7.36513
       H    -1.19665   -8.11003   -3.56980
       O    -2.06907   -8.15783   -3.15980
      H1    -1.85192   -8.45570   -2.26769
       H    -3.55684    1.06975   -4.94677
       O    -2.86304    0.95220   -4.28184
      H1    -3.36118    0.38357   -3.65709
       H     0.77761   -2.77777    0.73985
       O     0.04646   -2.17010    0.90896
      H1     0.01805   -2.09223    1.86200
       H    -3.77647   -0.00342    1.14919
       O    -4.19414    0.86558    0.97074
      H1    -4.37356    0.94759   -0.00465
       H     0.56246  -10.36546   -2.48433
       O     0.48333   -9.38197   -2.29371
      H1     0.43779   -8.90528   -3.13841
       H    -2.75132   -1.81116   -9.78144
       O    -3.04875   -2.67091   -9.46318
      H1    -2.52791   -2.94061   -8.66167
       H    -3.47804   -8.70106   -5.12968
       O    -4.25430   -9.28839   -4.96832
      H1    -4.67388   -8.84860   -4.24138
       H    -1.57250    0.50130    0.68278
       O    -0.73355    0.87350    0.97002
      H1    -0.71408    1.65159    0.40052
       H    -4.10275   -1.93018   -8.24572
       O    -4.24133   -1.31623   -7.52251
      H1    -4.05186   -0.54006   -8.06560
       H    -1.26871   -3.76357   -3.76761
       O    -1.81790   -3.00080   -3.56140
      H1    -2.06071   -3.18017   -2.66234
       H    -6.37228   -0.74391   -5.28449
       O    -5.81715   -0.17493   -4.70189
      H1    -6.23621   -0.34240   -3.83880
       H     1.27153    0.66850   -0.60650
       O     1.40373    1.02386   -1.48373
      H1     0.85903    0.35501   -2.01852
       H    -1.72772    2.58344   -3.93155
       O    -0.97119    3.14815   -3.70447
      H1    -0.18060    2.59587   -3.82147
       H    -5.23842    1.15193   -5.72113
       O    -4.82769    2.01088   -5.94540
      H1    -4.47989    1.87208   -6.82817
       H    -3.97438   -2.46488   -5.47584
       O    -3.95563   -3.31767   -5.05609
      H1    -3.10926   -3.24169   -4.55046
       H    -3.04635   -4.81418    2.26077
       O    -3.68269   -4.38816    1.62558
      H1    -3.73358   -3.43751    1.77009
       H    -1.22140   -5.84583   -8.18454
       O    -0.64096   -5.62858   -7.43740
      H1    -0.59521   -4.65925   -7.48588
       H     0.99846   -7.76549   -8.16644
       O     1.60570   -7.06163   -8.06724
      H1     1.22519   -6.24142   -7.74568
       H    -2.38658   -6.51473   -3.77010
       O    -2.12696   -5.76766   -4.29164
      H1    -2.32790   -6.13122   -5.18083
       H    -0.54893   -6.30534   -4.14529
       O     0.38429   -6.59708   -4.16077
      H1     0.81105   -6.54605   -3.29991
       H    -7.56928   -1.05843   -2.20126
       O    -6.91617   -0.36810   -1.98014
      H1    -6.63962   -0.53953   -1.04436
       H    -0.56307   -2.59937   -6.45281
       O    -1.41896   -2.76723   -6.86244
      H1    -1.91371   -1.96735   -6.57721
       H     1.59843   -3.95996   -5.25903
       O     2.08424   -4.81653   -5.32127
      H1     1.44693   -5.39628   -4.87874
       H    -0.87398   -6.44667    0.95352
       O    -0.04186   -6.83926    0.51830
      H1     0.30838   -7.25591    1.33720
       H     2.99879   -3.18703   -0.82318
       O     2.35045   -3.54544   -0.18356
      H1     2.85840   -3.93074    0.49385
       H    -7.84206   -6.11598    0.82379
       O    -7.35297   -6.46409    0.09345
      H1    -6.76290   -5.74028   -0.11920
       H    -1.04514    3.23243   -1.86655
       O    -1.28463    2.90737   -0.92667
      H1    -2.18251    3.28897   -0.78851
       H    -6.73073   -3.92243   -4.33115
       O    -6.03885   -4.44319   -3.85984
      H1    -5.27795   -4.12816   -4.42543
       H    -3.66860  -10.78010   -2.14596
       O    -2.77844  -10.93215   -2.59519
      H1    -2.53791  -10.09156   -3.00684
       H    -3.45221   -7.10601   -7.23022
       O    -2.75664   -7.04852   -6.58914
      H1    -2.20411   -6.40957   -7.00043
       H    -4.46795   -4.50843   -6.66662
       O    -4.57263   -4.70332   -7.55795
      H1    -5.49505   -5.06951   -7.52928
       H    -2.89167   -0.02504    3.47446
       O    -3.57602   -0.68898    3.60881
      H1    -4.36458   -0.11915    3.84802
       H    -2.52973   -3.93746   -0.44412
       O    -1.73224   -3.50076   -0.74158
      H1    -1.43236   -3.00335    0.03479
       H    -3.32743   -1.30947   -0.97161
       O    -3.57991   -0.70212   -1.69320
      H1    -4.30290   -1.24568   -1.97799
       H    -1.26383   -0.41487   -3.35820
       O    -0.30971   -0.70417   -3.40518
      H1    -0.55168   -1.63415   -3.24867

