180
frame 1 | Written by MDAnalysis XYZWriter (release 2.4.3)
       H     6.33318    5.70625  -19.19289
       O     5.39808    5.85173  -19.45035
      H1     4.96151    5.13045  -18.99552
       H     4.97032    7.45680  -13.86993
       O     4.52740    7.43003  -13.00869
      H1     3.63219    7.68614  -13.33923
       H     1.85058    4.57062   -8.18103
       O     1.44286    5.51139   -8.02434
      H1     0.49577    5.48716   -8.25992
       H     3.20197   10.80425  -12.04012
       O     3.57073   10.96958  -12.94214
      H1     4.47244   10.81431  -12.67926
       H    -2.08339    0.30751  -13.76316
       O    -1.78295   -0.19542  -12.98367
      H1    -2.58808   -0.06488  -12.40380
       H    -3.73235    1.81550  -18.06244
       O    -2.87288    1.90502  -17.60226
      H1    -2.47412    1.12991  -17.92287
       H     2.10720    1.76726   -9.19494
       O     1.28520    2.36570   -9.37354
      H1     1.04508    2.02070  -10.26651
       H    -4.52760    5.15186  -18.58582
       O    -3.59091    5.02340  -18.93979
      H1    -3.14350    4.56485  -18.27372
       H    -2.59275    3.44743  -12.42915
       O    -3.33351    3.86900  -12.95683
      H1    -4.12378    3.56809  -12.50782
       H    -2.82509    8.90137  -12.19796
       O    -2.66578    9.84088  -12.14258
      H1    -3.01557   10.07588  -11.24622
       H    -0.04522    8.21573   -8.06290
       O    -0.76835    8.33678   -7.45015
      H1    -0.50164    9.17391   -7.04562
       H    -4.90631    1.42085  -14.78435
       O    -5.85723    1.35651  -14.74381
      H1    -6.16472    1.50638  -15.63542
       H     3.34167    2.95270  -10.14872
       O     3.73790    2.82691  -10.97767
      H1     4.12669    3.63035  -11.25236
       H     4.68315    0.80507  -13.31982
       O     4.04883    0.49255  -12.63595
      H1     3.77901    1.35979  -12.19806
       H     1.37935    4.21070  -13.49714
       O     2.22642    3.88294  -13.13737
      H1     1.97826    3.22624  -12.46652
       H    -4.23071    7.95021  -14.64932
       O    -4.61299    8.79857  -14.89416
      H1    -5.56810    8.60432  -14.76896
       H     6.37378    2.41898  -13.92956
       O     6.26945    1.46236  -14.01713
      H1     6.50373    1.14160  -13.14454
       H     2.05525    8.54766   -8.60308
       O     1.38780    8.20516   -9.24312
      H1     1.47921    7.22301   -9.09570
       H     0.72438   -2.59236  -12.67530
       O     0.60599   -3.00698  -11.77008
      H1     1.12537   -3.76557  -11.88317
       H    -1.35895    4.16593  -10.73234
       O    -1.53601    3.23610  -10.91238
      H1    -1.92311    2.92672  -10.05169
       H     1.39876    1.48417  -13.68441
       O     1.76288    1.58490  -14.60958
      H1     2.14776    2.44426  -14.51135
       H    -0.33348    0.94077  -12.45750
       O     0.24600    1.70621  -12.16913
      H1    -0.45630    2.32398  -11.74057
       H     0.88865   -1.76861   -8.53957
       O     0.67668   -1.33661   -9.34056
      H1     0.51212   -1.95272  -10.05201
       H    -0.45205    4.47932  -18.52491
       O    -0.70637    4.85133  -17.68713
      H1    -0.61521    4.05921  -17.09817
       H     3.24932    1.98883  -20.19744
       O     2.64994    1.90547  -19.46404
      H1     3.13107    1.25502  -18.91824
       H     1.19468   10.32018  -11.80952
       O     1.63352   10.49704  -10.96233
      H1     1.61470    9.56219  -10.65889
       H     2.60853   -0.23796  -17.34864
       O     3.19698    0.36996  -16.91083
      H1     2.53872    0.78923  -16.25917
       H     2.42580   -2.16622  -11.48508
       O     3.25878   -1.98056  -11.97023
      H1     3.17091   -1.03071  -12.08928
       H     3.94216    7.53148  -16.64519
       O     3.22141    6.98247  -16.29716
      H1     2.78053    7.58761  -15.67304
       H    -3.26850    2.26163  -15.64269
       O    -3.14881    1.70952  -14.83165
      H1    -3.16522    2.46307  -14.24684
       H     6.91314    6.31106  -15.15454
       O     6.47639    7.11682  -15.55950
      H1     7.27157    7.61060  -15.82866
       H    -1.43045    7.01107  -17.07213
       O    -1.98576    7.35746  -16.35909
      H1    -2.27200    8.29051  -16.65384
       H     7.44197    4.03750  -14.52502
       O     7.09726    3.88640  -13.61826
      H1     7.91884    3.52042  -13.21728
       H     1.83253    9.38093  -15.13572
       O     2.29792    8.98855  -14.44705
      H1     2.68363    9.83800  -14.04953
       H     1.13874    4.68328  -17.09283
       O     1.71404    4.53838  -16.32104
      H1     2.24650    5.34376  -16.28971
       H    -3.63479    6.68079  -12.96655
       O    -3.58301    6.77786  -12.02968
      H1    -4.41591    7.20155  -11.83052
       H     6.62782    4.64521   -8.84608
       O     6.72381    5.16933   -8.03634
      H1     6.09525    4.62643   -7.56487
       H     4.97406    5.36880  -16.63469
       O     4.83548    4.44183  -16.91165
      H1     4.03428    4.16341  -16.55285
       H     0.08831    1.32226   -8.61799
       O    -0.55717    0.66688   -8.29978
      H1    -0.16198   -0.02610   -8.93518
       H     5.79445    8.19328  -12.02375
       O     6.67507    8.55972  -11.77836
      H1     6.32082    9.06318  -11.00010
       H     0.16801   10.99127  -13.48207
       O     0.03088   10.18531  -12.98160
      H1    -0.92105   10.21207  -12.83270
       H    -5.27793    5.46982  -10.10761
       O    -4.48227    4.93382  -10.16271
      H1    -4.01121    5.34173  -10.92962
       H    -0.85700    7.96428  -14.96779
       O    -0.87016    7.77284  -14.04074
      H1    -0.18962    8.32941  -13.66488
       H     6.40366    1.87175  -16.84865
       O     7.16643    2.08334  -17.40336
      H1     7.70859    1.29221  -17.23754
       H     6.55933    1.82976  -10.99447
       O     6.78909    1.07673  -11.56429
      H1     6.14282    0.35816  -11.33434
       H     4.67698    6.00900  -12.26771
       O     5.12931    5.17123  -11.88481
      H1     5.56642    4.98924  -12.70560
       H     0.39813    9.46880  -17.16795
       O     0.23055   10.03349  -16.41188
      H1    -0.71649   10.06221  -16.49362
       H    -0.06653    6.01679  -10.63231
       O    -0.82058    5.81460  -10.07901
      H1    -1.45336    6.48692  -10.14764
       H     1.81118    5.47037  -11.96771
       O     1.44517    6.35782  -11.78617
      H1     0.91542    6.58194  -12.62198
       H     2.61481   -0.28085   -9.01155
       O     3.25545    0.45211   -8.90291
      H1     3.85581   -0.01725   -8.25718
       H     0.46153    5.06666  -15.20846
       O    -0.01690    5.13432  -14.34739
      H1    -0.65751    5.83285  -14.56492
       H     1.03585    8.99346  -19.36389
       O     1.43709    8.45524  -18.64651
      H1     2.36148    8.69245  -18.67120
       H    -2.79046    3.54435   -7.73870
       O    -2.79434    2.61438   -8.08006
      H1    -1.90940    2.26337   -7.87220
       H     0.06842    2.20366  -15.52450
       O    -0.41777    2.45146  -16.36553
      H1    -1.26938    1.94019  -16.25275
       H     5.54843    2.96040  -10.01382
       O     6.40054    3.41038  -10.17723
      H1     6.27525    4.19640  -10.71519
       H     4.73583   -0.34194  -16.46283
       O     5.45378   -0.76038  -15.89479
      H1     5.82861   -1.35196  -16.57123
       H    -4.78773    3.04696  -10.78846
       O    -4.99333    2.26399  -11.34644
      H1    -5.91828    2.39520  -11.41058
       H     0.40365    0.44679  -16.54957
       O     0.22259   -0.50077  -16.72414
      H1    -0.32887   -0.31906  -17.53776
       H    -3.57037    5.36006  -14.32747
       O    -3.76195    6.24437  -14.75462
      H1    -2.94988    6.37458  -15.31703
       H     1.25155   -3.16561  -14.91612
       O     0.83656   -2.37831  -14.50503
      H1     0.76314   -1.74022  -15.30064

