180
frame 11 | Written by MDAnalysis XYZWriter (release 2.4.3)
       H    -0.75307   -9.25137  -12.14091
       O    -1.03532   -8.32124  -12.10364
      H1    -1.44303   -8.34720  -11.22073
       H    -4.13070  -12.97696  -15.12045
       O    -4.78904  -13.64365  -15.38925
      H1    -5.21396  -13.16222  -16.14708
       H    -5.91167  -13.38492  -14.24939
       O    -6.80574  -13.22439  -13.78100
      H1    -6.71966  -14.02487  -13.22814
       H    -2.24111  -12.90308   -8.44238
       O    -2.76341  -13.41799   -7.79519
      H1    -3.22574  -12.73510   -7.28646
       H    -2.75222  -11.05503  -14.16265
       O    -3.22645  -11.87523  -13.94902
      H1    -2.44037  -12.38243  -13.63255
       H    -2.19962  -12.31705  -18.21398
       O    -2.18082  -12.22972  -17.23916
      H1    -2.39831  -13.08313  -16.90798
       H    -5.70858   -9.73293  -13.85372
       O    -5.49335   -9.77510  -14.83020
      H1    -4.75471   -9.13725  -14.71253
       H    -0.37778  -16.77052  -15.22775
       O    -0.71606  -17.56439  -15.65522
      H1    -0.03079  -18.18735  -15.30323
       H     4.90830  -16.51256  -14.31041
       O     4.29949  -15.78158  -14.13138
      H1     4.57735  -15.52428  -13.25314
       H    -3.62745  -10.36857   -7.86071
       O    -4.20828  -10.78040   -7.19443
      H1    -3.65312  -10.61454   -6.40161
       H     2.36905  -14.70985  -11.34439
       O     1.90760  -13.82216  -11.30963
      H1     1.01779  -14.09179  -10.95578
       H     1.91417  -12.58949  -15.58728
       O     2.54864  -12.57794  -16.33488
      H1     2.44394  -13.44087  -16.72757
       H    -0.17224  -14.74012  -16.56155
       O    -0.84493  -14.73622  -15.91088
      H1    -1.42027  -15.38817  -16.22707
       H    -0.91012  -15.66741  -12.50986
       O    -0.08308  -15.90016  -12.03004
      H1     0.44426  -16.03637  -12.81207
       H     2.73857  -12.87887   -8.78387
       O     2.07372  -12.64727   -8.10860
      H1     2.20629  -13.30214   -7.42546
       H     5.06645   -8.38000  -16.84548
       O     4.82164   -9.31581  -16.83831
      H1     5.52847   -9.77520  -17.31023
       H    -2.84203   -8.26546  -17.87338
       O    -3.54986   -8.21144  -17.24568
      H1    -4.29188   -8.71414  -17.61165
       H     3.81190   -8.26799   -5.43970
       O     4.21409   -8.28087   -6.36191
      H1     4.12554   -9.21519   -6.54213
       H    -1.78003   -5.90116   -9.94179
       O    -1.98214   -6.72737   -9.49276
      H1    -2.61812   -6.43119   -8.83286
       H     3.10989   -7.31215   -9.52766
       O     2.28986   -7.21911  -10.02450
      H1     1.75307   -6.66649   -9.45599
       H     0.18999   -7.13412  -12.08682
       O     0.82538   -6.40681  -12.33537
      H1     1.44215   -6.38373  -11.58463
       H     3.60004   -6.36914  -14.15394
       O     4.38483   -6.75025  -13.76461
      H1     4.94876   -6.90154  -14.55463
       H    -0.18272  -11.78789   -7.15384
       O    -0.18284  -10.99475   -7.75165
      H1     0.67227  -11.05402   -8.17180
       H    -0.46066  -16.02193   -7.86153
       O    -0.20990  -16.25276   -8.78813
      H1    -0.57520  -17.15232   -8.88921
       H     1.60083   -8.88583   -9.68347
       O     1.62002   -9.83026   -9.50868
      H1     1.23176  -10.08353  -10.31932
       H     0.77231  -12.51929   -5.02601
       O    -0.09455  -12.70658   -5.41480
      H1    -0.74873  -12.33032   -4.79841
       H     5.16070  -13.90816   -8.08787
       O     4.89697  -14.66211   -8.67026
      H1     5.10708  -15.44292   -8.13678
       H    -4.15745  -10.22735  -10.92105
       O    -3.69794  -11.01522  -11.22776
      H1    -3.66941  -10.91282  -12.18829
       H     3.13030   -4.40121  -12.64859
       O     3.37455   -4.65318  -11.76461
      H1     3.88553   -5.43004  -12.06269
       H    -3.79802  -15.48224  -12.73179
       O    -2.83450  -15.66150  -12.59724
      H1    -2.96499  -16.60577  -12.45736
       H    -3.29260   -8.06381  -13.00300
       O    -4.32297   -8.15737  -12.96863
      H1    -4.66569   -7.35589  -13.46386
       H    -1.88651  -14.18432  -12.59262
       O    -1.43289  -13.31737  -12.44041
      H1    -1.73290  -13.17663  -11.52826
       H    -0.60534   -3.87136  -10.85126
       O    -1.10949   -4.58777  -11.26794
      H1    -0.53650   -4.85678  -12.05916
       H     2.01725   -7.86308  -14.94771
       O     1.60154   -8.52878  -14.35632
      H1     1.22355   -8.05167  -13.56072
       H    -6.76726  -11.85190  -11.72615
       O    -6.49419  -11.86127  -10.83309
      H1    -5.60433  -11.48352  -10.95138
       H     1.75832   -8.65597   -7.25367
       O     0.87704   -8.45972   -6.79735
      H1     0.35388   -9.16203   -7.19799
       H     0.61069   -9.64271  -17.12532
       O     0.36042  -10.08895  -16.29817
      H1     0.88312   -9.58364  -15.65089
       H     1.42500  -15.04417  -14.29746
       O     1.62917  -16.01419  -14.23066
      H1     2.56818  -15.89851  -14.19207
       H     5.90173  -12.43755  -15.35230
       O     5.37547  -12.99006  -16.04425
      H1     4.50931  -12.56231  -15.88061
       H    -3.72726  -11.59484  -16.95100
       O    -4.63665  -11.26808  -17.04910
      H1    -4.88270  -10.97475  -16.18997
       H    -1.53472   -7.53340   -6.11459
       O    -2.43511   -7.53758   -5.77412
      H1    -2.65446   -6.62347   -5.83079
       H     5.49048  -15.48352  -11.59872
       O     5.52910  -14.61933  -11.92117
      H1     5.07079  -14.17500  -11.15246
       H     0.09714  -13.22916  -14.04487
       O     1.09541  -13.25910  -14.02362
      H1     1.20693  -13.56530  -13.12644
       H    -0.37883   -6.32545   -8.39730
       O     0.44779   -6.16262   -7.81340
      H1     0.64726   -7.06202   -7.55561
       H     6.84342  -11.62296  -10.34006
       O     7.56866  -11.62973  -10.99965
      H1     7.83517  -12.54469  -10.82632
       H     0.29018  -11.56856  -12.29659
       O     0.14511  -10.67987  -11.90557
      H1    -0.51564  -10.91348  -11.21257
       H    -4.87605   -8.33589  -11.22394
       O    -4.95768   -8.75663  -10.35933
      H1    -4.15674   -8.42205   -9.89501
       H    -0.36214  -14.60288   -9.21884
       O    -0.31363  -13.69953   -9.70810
      H1     0.34042  -13.27019   -9.11693
       H     4.74459   -7.90758   -8.13638
       O     4.64841   -8.03050   -9.05462
      H1     4.83769   -9.03051   -9.24572
       H    -1.23420   -9.94552  -17.93776
       O    -1.64780   -9.70601  -18.77441
      H1    -0.90258   -9.18126  -19.16728
       H     2.87829  -11.29325   -7.22422
       O     3.29307  -10.84859   -6.46157
      H1     2.83144  -11.25782   -5.67871
       H    -4.46053  -13.37480   -8.46325
       O    -5.39178  -13.44013   -8.64050
      H1    -5.43474  -12.91161   -9.47863
       H     3.45772  -15.88365   -9.97949
       O     3.07291  -16.19907  -10.84692
      H1     2.43528  -16.83238  -10.53658
       H    -2.33605  -10.52983  -10.10290
       O    -1.84092   -9.98338   -9.50127
      H1    -1.29174  -10.55324   -8.97046
       H     4.30804   -8.48994  -12.69711
       O     3.96177   -9.38292  -12.51821
      H1     3.13228   -9.37169  -12.95751
       H     2.68370  -11.37665  -17.56901
       O     2.80262  -10.77075  -18.33018
      H1     3.46678  -10.14684  -18.00109
       H    -1.10298   -9.73611  -15.41419
       O    -1.98432   -9.66893  -14.97438
      H1    -2.50476   -9.44175  -15.79652
       H     2.68324   -4.95724  -16.17938
       O     2.39024   -5.27088  -15.32997
      H1     1.60241   -4.70900  -15.19451
       H     3.06400  -12.20277  -11.63986
       O     4.02719  -12.01191  -11.60898
      H1     4.18495  -11.34247  -12.32326
       H     4.99334  -10.98521  -10.21480
       O     5.57430  -10.62570   -9.51405
      H1     5.57439  -11.41504   -8.93701

