180
frame 3 | Written by MDAnalysis XYZWriter (release 2.4.3)
       H    11.43424  -12.02085   -3.96500
       O    10.95027  -12.59969   -4.52294
      H1    10.58327  -12.01477   -5.20944
       H    14.49801   -9.14276  -13.58446
       O    14.36092   -9.40233  -14.48872
      H1    13.94865   -8.71170  -15.00429
       H    12.85066   -8.37607   -7.58188
       O    13.57876   -8.28394   -8.16337
      H1    14.32400   -7.84879   -7.65867
       H    17.29735   -5.64903   -4.63785
       O    17.14864   -5.97528   -3.78254
      H1    17.88567   -5.52866   -3.31231
       H    18.23921   -6.74373  -15.54186
       O    18.05283   -5.88020  -15.97810
      H1    18.92085   -5.70190  -16.37777
       H    17.16657  -15.96910  -11.92709
       O    16.38367  -16.28240  -11.44501
      H1    16.23642  -17.15744  -11.70060
       H    12.93814  -10.84763   -9.29469
       O    13.51481  -11.04382   -8.52585
      H1    13.67142  -10.14567   -8.11698
       H    13.70847   -4.63419   -5.34513
       O    13.32351   -5.39292   -5.83590
      H1    13.03352   -6.01084   -5.14949
       H    17.57365  -12.44839   -0.44956
       O    18.52785  -12.58126   -0.65019
      H1    18.64109  -11.92154   -1.36391
       H    17.75149   -5.50387  -14.12619
       O    17.90972   -5.21754  -13.24397
      H1    17.85190   -4.23731  -13.25305
       H    17.36560  -16.23780   -7.15895
       O    18.13001  -16.78552   -6.99815
      H1    17.81005  -17.56651   -6.45697
       H    13.39502   -9.24960   -3.69541
       O    13.93108   -9.27969   -2.88393
      H1    13.39345   -9.87080   -2.34737
       H    14.25495   -4.39849  -10.25579
       O    13.69764   -3.59990  -10.41719
      H1    12.80243   -3.94405  -10.41301
       H    16.25007   -1.06984  -10.53142
       O    17.16799   -1.48840  -10.38035
      H1    16.94009   -2.22529   -9.82105
       H    15.77502   -6.58175   -7.32058
       O    15.53930   -7.00151   -6.48038
      H1    14.79559   -6.33767   -6.25431
       H    18.58481  -12.37387   -6.85088
       O    19.01627  -12.44026   -5.95967
      H1    19.21047  -13.35638   -5.98994
       H    10.89605   -9.53721  -10.54087
       O    11.47950  -10.28723  -10.62421
      H1    11.13510  -10.85096  -11.35386
       H    18.75194   -3.98586   -5.97715
       O    17.97661   -4.47973   -6.30903
      H1    17.21916   -3.94659   -5.94311
       H    18.04096  -12.90799  -11.31246
       O    18.68497  -12.14558  -11.20003
      H1    19.33853  -12.50882  -10.54096
       H    17.81554   -9.97898  -13.55636
       O    18.46594  -10.66517  -13.60490
      H1    18.47676  -11.08545  -12.69407
       H    18.27085  -13.04541  -16.31064
       O    18.08309  -12.53981  -17.13932
      H1    17.15185  -12.40223  -17.03245
       H    20.15437  -10.17167   -5.70083
       O    19.48697   -9.54409   -5.38816
      H1    18.67147  -10.07045   -5.46328
       H    11.32118  -15.78479  -10.68829
       O    11.37274  -15.39384  -11.56632
      H1    12.24540  -15.00993  -11.65274
       H    17.05943  -12.63190   -8.40941
       O    17.64828  -11.89190   -8.51604
      H1    17.72261  -11.95898   -9.48894
       H    15.96054  -14.36309   -2.56302
       O    15.24075  -13.68681   -2.58143
      H1    15.76958  -12.92815   -2.91373
       H    10.04637  -11.36763   -7.25291
       O     9.83401  -10.95406   -6.37481
      H1    10.04285   -9.97812   -6.42843
       H    13.71338  -12.37988   -3.02431
       O    12.94262  -11.81151   -2.79501
      H1    13.06202  -11.62082   -1.82049
       H    18.60174  -17.45829  -10.33227
       O    19.17923  -17.05960   -9.63831
      H1    18.60516  -17.02028   -8.85884
       H    19.64234  -15.33099  -12.07988
       O    18.93909  -15.42830  -12.63194
      H1    19.18387  -16.19333  -13.19979
       H    14.10330  -13.86849  -13.88939
       O    13.47676  -14.57300  -13.55341
      H1    13.96487  -15.38899  -13.84582
       H    15.42410   -5.75250   -9.69110
       O    15.74536   -5.21528   -8.99315
      H1    16.71705   -5.23922   -9.09965
       H    18.30932   -3.93294   -8.26892
       O    18.17524   -4.11150   -9.20476
      H1    18.90537   -3.62675   -9.67688
       H    16.78439  -10.01122   -6.77932
       O    16.60853   -9.89267   -5.85825
      H1    16.26139   -8.97919   -5.85620
       H    18.79268   -7.24486   -8.99432
       O    18.40369   -7.44104   -9.91839
      H1    18.79785   -6.90653  -10.57301
       H    14.77068   -2.60534   -7.74972
       O    15.79578   -2.51315   -7.84391
      H1    15.84547   -3.38843   -8.30640
       H    10.37884   -6.58315   -9.03564
       O     9.45388   -6.69005   -8.74050
      H1     9.21444   -5.80156   -8.44928
       H    10.95904   -6.73587   -3.86334
       O    11.76165   -7.15696   -4.19203
      H1    12.19120   -7.42573   -3.32019
       H    14.98266   -5.54984  -13.91535
       O    15.40724   -6.03523  -13.15626
      H1    16.27556   -5.59473  -13.20623
       H    15.77377  -13.83571  -11.13198
       O    16.24314  -13.10959  -11.52450
      H1    15.95159  -13.00973  -12.45722
       H    15.53080  -10.25063  -15.43538
       O    15.94985  -10.77069  -16.19420
      H1    16.90064  -10.55637  -15.97598
       H    17.43857  -10.31730   -9.06587
       O    16.94118   -9.59968   -9.55048
      H1    17.61462   -8.87174   -9.54257
       H    12.94758   -4.40303   -7.52566
       O    12.83259   -3.44879   -7.70731
      H1    12.92708   -3.34895   -8.67966
       H    10.17266   -7.81314   -7.29483
       O    10.84360   -8.43533   -6.99130
      H1    11.11221   -8.08896   -6.12574
       H    18.40693   -6.68336   -7.14127
       O    19.01071   -7.43290   -7.39840
      H1    19.02303   -7.95432   -6.56940
       H    17.42121   -7.83031  -13.58802
       O    17.63285   -8.13793  -14.50877
      H1    18.56829   -8.38723  -14.28039
       H    18.25463   -8.90932   -1.98443
       O    18.39271   -8.21153   -1.37030
      H1    18.46941   -7.47289   -1.99051
       H    14.67157  -15.38303   -5.24251
       O    14.87865  -14.45629   -5.47655
      H1    15.16458  -14.08249   -4.62178
       H    15.83326  -11.10340   -4.35732
       O    16.15226  -11.33533   -3.43824
      H1    15.68069  -10.67627   -2.90955
       H    11.08060  -13.16788   -8.41165
       O    10.13220  -12.95562   -8.52156
      H1     9.75925  -13.76359   -8.05898
       H    15.78299  -14.62745   -7.10375
       O    16.36675  -14.62305   -7.90866
      H1    15.79662  -15.10011   -8.55061
       H    10.34029  -11.68700  -13.50750
       O    10.92008  -10.92239  -13.58902
      H1    11.04300  -10.82971  -14.55826
       H    13.18114  -12.67713   -7.97588
       O    12.90782  -13.63683   -7.83397
      H1    13.20356  -13.62069   -6.93176
       H    18.72581  -14.19011  -14.01851
       O    18.31627  -13.48862  -14.56248
      H1    18.86273  -12.74878  -14.28389
       H    19.09226  -10.28894   -3.67840
       O    18.63971  -10.64700   -2.83832
      H1    17.82019  -11.06886   -3.21300
       H    15.31228   -9.63701  -10.72351
       O    14.63461   -9.42377  -11.38579
      H1    13.89988   -9.90880  -10.94236
       H    14.53652   -6.47004  -11.83754
       O    14.19983   -6.52624  -10.89674
      H1    14.42772   -7.37841  -10.49182
       H    12.56457   -7.36290  -11.72651
       O    12.01886   -7.93811  -12.31886
      H1    12.29125   -8.80764  -11.93530
       H    16.08235  -16.60893   -4.14780
       O    15.63307  -17.08128   -4.87066
      H1    14.96445  -17.65804   -4.51955
       H    10.08768  -12.94380  -10.35212
       O    10.05448  -13.10295  -11.26560
      H1    10.45030  -13.99860  -11.32064
       H    16.63271  -13.38406  -14.81645
       O    15.71308  -13.43638  -15.08463
      H1    15.49596  -12.55786  -15.38534

