180
frame 11 | Written by MDAnalysis XYZWriter (release 2.4.3)
       H    -8.40884  -17.36556   13.19289
       O    -8.35085  -17.71964   14.09064
      H1    -7.37106  -17.74072   14.25244
       H   -10.43848  -10.30137    9.05161
       O   -10.47529  -10.76102    9.94003
      H1   -10.29176  -10.05609   10.52785
       H    -6.59610  -11.82136   13.56102
       O    -5.99596  -11.73974   14.27824
      H1    -5.97534  -10.77844   14.34476
       H    -4.93383  -15.77260    9.30782
       O    -5.72694  -16.03580    9.77838
      H1    -6.50425  -15.54996    9.51150
       H   -12.35493  -18.22885    5.65188
       O   -11.71531  -18.11509    6.33166
      H1   -12.07862  -17.52125    7.00548
       H    -5.28019  -11.54352   10.49398
       O    -6.02714  -11.91539   10.99061
      H1    -6.66998  -12.04909   10.28511
       H    -8.92037  -15.68017   16.79765
       O    -8.37505  -15.83490   17.63523
      H1    -8.15346  -14.93409   17.91422
       H   -13.08713  -11.13304   12.90189
       O   -13.61951  -10.49090   12.36466
      H1   -14.04490   -9.91213   13.00554
       H    -5.58408  -13.48374   11.62244
       O    -5.36559  -14.31783   12.12039
      H1    -5.75931  -14.95098   11.49660
       H    -9.81515  -13.29450   19.52708
       O   -10.14194  -12.61979   18.97545
      H1   -10.62608  -12.01013   19.58652
       H    -9.08952  -10.25312   13.85331
       O    -8.86788   -9.69813   13.05396
      H1    -9.74620   -9.48922   12.66705
       H    -4.63920  -10.47910   13.22659
       O    -4.79097   -9.49234   13.19340
      H1    -3.92768   -9.16839   13.49409
       H    -7.50114  -17.89307   11.16731
       O    -8.03322  -17.06784   11.27205
      H1    -8.90385  -17.24287   11.01879
       H   -15.87160  -18.06216   15.47645
       O   -15.67963  -18.27880   16.39801
      H1   -14.91411  -18.83806   16.30358
       H    -2.58584  -18.12105   10.66683
       O    -2.58012  -18.03342    9.72853
      H1    -1.91552  -18.54077    9.26025
       H    -5.75593  -18.86343    8.25730
       O    -6.26840  -18.62830    9.04570
      H1    -6.08706  -17.69285    9.10728
       H    -3.09053  -11.17518   17.33755
       O    -3.78121  -11.12307   16.63183
      H1    -4.54455  -11.63283   17.04096
       H    -2.47828  -12.36013   11.78014
       O    -2.49160  -11.51836   12.18920
      H1    -1.62794  -11.21435   11.94202
       H   -14.01315  -13.43936   10.13942
       O   -13.59657  -14.35257   10.07916
      H1   -14.01382  -14.73650   10.82878
       H    -5.57767  -13.04183   17.04039
       O    -6.08842  -12.39315   17.50943
      H1    -6.84960  -12.23732   16.94644
       H   -14.42334  -18.21985   13.62521
       O   -15.41451  -18.45190   13.60694
      H1   -15.74946  -17.80331   13.02148
       H   -14.08111  -14.90692    8.45864
       O   -14.51464  -15.29007    7.65478
      H1   -14.80113  -16.13937    8.11514
       H    -4.52781  -14.08396    8.22440
       O    -5.27218  -13.73686    7.68935
      H1    -4.75195  -13.19252    7.05719
       H    -3.01457  -16.36853    8.98354
       O    -3.28291  -15.47333    8.78751
      H1    -3.05366  -15.02030    9.57611
       H    -9.96170  -16.84778    8.01981
       O   -10.24678  -15.93794    7.97438
      H1   -10.83812  -15.86090    7.23532
       H    -1.49255  -17.02388   10.73659
       O    -0.94667  -16.29179   11.08618
      H1    -0.12155  -16.78777   11.34685
       H    -2.46233  -15.82695   17.89293
       O    -1.74551  -15.28349   17.51717
      H1    -2.08955  -15.17949   16.60878
       H    -6.19517  -12.15703    7.65006
       O    -7.01960  -11.74711    7.32831
      H1    -7.64399  -12.49932    7.32226
       H   -16.05969  -18.16794    8.62740
       O   -15.20033  -17.87052    8.36605
      H1   -14.68795  -18.04159    9.15730
       H    -3.74943  -15.21144   15.30651
       O    -2.84416  -15.01740   14.91319
      H1    -2.73992  -14.04282   14.98897
       H   -10.72949  -15.94380    9.95174
       O   -10.74618  -16.43223   10.77482
      H1   -10.66936  -15.71994   11.40549
       H   -12.23421  -11.13634   15.41307
       O   -13.01095  -10.52499   15.66467
      H1   -13.09917  -10.66659   16.67345
       H    -6.54949  -14.21392   13.91705
       O    -7.37991  -14.74053   14.15777
      H1    -7.52088  -15.22762   13.36975
       H   -15.45495  -16.61701   10.95629
       O   -16.00627  -16.42461   11.77571
      H1   -16.81142  -16.31349   11.27031
       H   -13.04242  -13.35431   13.45430
       O   -12.40677  -12.58075   13.51279
      H1   -11.95350  -12.85031   12.67583
       H    -5.34771  -16.39602    6.53953
       O    -5.18181  -17.31103    6.79259
      H1    -4.24985  -17.36204    6.67748
       H   -14.96115  -15.24121   12.45954
       O   -14.34666  -14.53810   12.55769
      H1   -14.85969  -13.72371   12.54351
       H   -11.24640  -12.88066   17.46976
       O   -11.76075  -13.10991   16.70759
      H1   -11.34686  -13.90538   16.36433
       H    -8.40135  -10.25854   17.81489
       O    -8.54951  -11.06887   17.30348
      H1    -8.92638  -11.61082   17.97697
       H    -2.87208  -16.05940   13.21944
       O    -3.08558  -16.93825   12.88155
      H1    -3.99903  -17.17678   13.05814
       H    -6.89605  -14.57795   19.82464
       O    -7.34727  -13.75038   19.66403
      H1    -6.80859  -13.42970   18.88807
       H    -7.55234  -16.82811    7.62784
       O    -7.54012  -15.88592    7.56173
      H1    -8.43565  -15.62605    7.72661
       H    -9.76109  -12.53386    7.95332
       O    -9.27633  -13.16529    7.36852
      H1   -10.04618  -13.68573    7.05926
       H    -7.10913  -18.24989   16.95576
       O    -7.27498  -19.09984   17.44353
      H1    -7.82296  -18.77954   18.20315
       H    -9.07095  -15.00543   15.22952
       O   -10.00178  -15.32431   15.38913
      H1   -10.15826  -16.15419   14.91718
       H   -14.26447  -14.38564   14.79843
       O   -14.61691  -13.98179   15.64749
      H1   -13.80565  -13.69918   16.11972
       H    -9.57833  -10.97940   15.95798
       O    -9.85825  -11.03636   15.02679
      H1   -10.07647  -11.98813   14.97952
       H   -12.03883  -13.59656   10.72188
       O   -11.26479  -13.37348   11.31021
      H1   -10.92938  -12.66544   10.71096
       H   -13.11368  -17.89483   11.38477
       O   -13.36765  -17.52195   10.51193
      H1   -12.64872  -16.86040   10.28929
       H    -5.51006  -18.29816   13.55088
       O    -5.58916  -17.55413   14.11669
      H1    -5.03060  -17.84080   14.86706
       H    -6.30148  -19.93473   11.91729
       O    -6.08884  -19.02498   11.83055
      H1    -5.93612  -18.95500   10.89779
       H    -2.92314  -16.82084   19.65316
       O    -3.66684  -16.80230   18.98325
      H1    -4.39236  -16.40794   19.48018
       H    -8.91738  -17.41459   19.15451
       O    -8.46239  -18.12804   19.59089
      H1    -9.19724  -18.72546   19.86708
       H    -7.47724  -17.40601    4.95055
       O    -7.74356  -18.32954    4.84450
      H1    -8.26141  -18.46334    5.73522
       H    -2.47418  -18.68130   12.91004
       O    -2.11419  -19.55598   12.93097
      H1    -2.84168  -20.18459   12.86610
       H    -8.67108  -19.24075    7.66013
       O    -9.16041  -18.53507    7.20454
      H1    -9.94555  -18.99944    6.87921
       H    -3.44729  -18.09167   16.89223
       O    -4.16005  -18.43264   16.32770
      H1    -3.93778  -19.37748   16.23580
       H    -5.78486  -15.19420   15.69472
       O    -5.21969  -15.00257   16.49450
      H1    -4.87364  -15.91038   16.68481
       H   -11.79896  -18.60269   13.08609
       O   -12.81287  -18.48562   12.92710
      H1   -13.05115  -19.40858   13.12762
       H    -3.51909  -14.44118   11.51190
       O    -2.77853  -14.11887   10.93676
      H1    -1.99142  -14.58823   11.30499

