180
frame 4 | Written by MDAnalysis XYZWriter (release 2.4.3)
       H     7.70330   10.72300   -9.43039
       O     7.07675   11.41357   -9.38452
      H1     6.87627   11.37482   -8.40152
       H     7.85014   13.16276   -9.18816
       O     8.47946   13.89886   -9.06928
      H1     7.84987   14.58105   -8.85024
       H    16.05469   10.07539   -6.14602
       O    16.27826   10.59139   -6.98994
      H1    15.38790   11.03367   -7.09117
       H     8.83555   15.02264   -4.64393
       O     9.67544   15.52456   -4.67089
      H1     9.44024   16.32515   -4.14228
       H    13.88311   17.09707   -5.52343
       O    14.27699   17.54980   -4.71921
      H1    13.50770   17.41699   -4.13315
       H    15.98706   17.73948   -6.21495
       O    16.19042   18.17383   -7.07373
      H1    17.01805   17.76858   -7.33841
       H    16.19541    7.64999   -9.33831
       O    17.06890    7.28960   -9.17652
      H1    17.16467    6.42467   -9.67866
       H    13.57493    7.36133   -5.10390
       O    12.75609    7.67973   -4.67679
      H1    13.24535    8.34071   -4.07602
       H    12.19544    8.96037  -13.22624
       O    11.70292    8.56161  -13.96289
      H1    12.26388    7.89756  -14.26140
       H    19.10382    9.26676   -8.04721
       O    19.27476    9.63204   -8.92826
      H1    18.40011    9.88654   -9.19678
       H    16.73802    8.77846   -4.65396
       O    15.90000    9.28235   -4.76305
      H1    15.38753    9.26350   -3.96518
       H    10.98344   15.43949  -12.31910
       O    10.60923   15.65203  -11.48280
      H1     9.68590   15.86094  -11.68188
       H    13.87124   14.79199   -1.34159
       O    12.88697   14.99373   -1.37733
      H1    12.50024   14.17780   -1.63784
       H    11.43063    5.75114   -7.08261
       O    12.07269    5.89370   -7.76925
      H1    12.77099    5.31218   -7.43726
       H    11.23908    7.06054   -4.58329
       O    10.30149    6.84948   -4.64979
      H1    10.25064    5.84863   -4.68497
       H    11.47685   17.42014  -10.90797
       O    12.13897   18.05327  -10.49163
      H1    13.00654   17.85565  -10.91675
       H    11.64979   12.06198   -2.29957
       O    11.81876   11.48317   -1.48456
      H1    11.25234   11.95352   -0.85904
       H     9.68796   13.79005   -7.56711
       O    10.09360   13.48229   -6.73966
      H1    10.58228   14.29835   -6.49718
       H    11.36842   16.33420   -9.25921
       O    11.45724   16.09619   -8.32933
      H1    11.11304   16.86767   -7.89621
       H    14.16062   10.25686   -3.07943
       O    13.90302    9.32362   -2.92411
      H1    13.95667    9.18662   -1.99638
       H    15.26147    5.19997   -6.72048
       O    14.81240    6.02958   -6.59302
      H1    15.48831    6.63384   -6.88513
       H    14.19988   12.12967    0.29413
       O    14.39369   12.05758   -0.70763
      H1    13.47823   11.74820   -0.92249
       H    20.08759   14.88828   -4.92878
       O    19.41773   15.56580   -4.68064
      H1    18.78916   14.97149   -4.26407
       H    12.26598    8.37957   -6.30558
       O    12.28822    8.54824   -7.26066
      H1    12.13379    7.62301   -7.60195
       H    11.21939   13.59829   -3.96695
       O    11.56906   12.69026   -3.82805
      H1    10.86042   12.19467   -4.27297
       H    16.97714   10.95298   -3.41786
       O    17.24859   11.42807   -2.63363
      H1    16.68159   11.01715   -1.87140
       H    12.47075   15.82347  -14.68243
       O    12.39234   15.67294  -13.69720
      H1    12.02271   16.52201  -13.38618
       H    14.94745   17.23256  -12.49191
       O    14.81719   17.92648  -11.75582
      H1    15.12761   17.51048  -10.86662
       H    17.18472   12.11585   -7.03576
       O    17.93865   12.72625   -7.16137
      H1    17.45396   13.56589   -7.08998
       H    15.94159   12.59756  -13.24627
       O    15.22108   13.15488  -13.02296
      H1    15.37374   13.96196  -13.48386
       H     8.85015   13.09796   -1.11473
       O     9.72486   13.36533   -1.43134
      H1     9.46497   13.50664   -2.32556
       H     9.89082   10.64154   -5.63487
       O     9.69013   10.79590   -4.63985
      H1     8.88733   11.27384   -4.74548
       H    14.96496    7.53594  -11.45778
       O    14.90898    8.19654  -10.72928
      H1    14.20495    8.72499  -11.23478
       H    16.54293   14.00490   -4.17145
       O    17.32737   14.03719   -3.64377
      H1    17.38161   13.15562   -3.30311
       H    18.36157   15.43059   -9.90751
       O    17.75001   15.70418  -10.62673
      H1    17.28284   14.92468  -10.77901
       H    19.10405   11.64872   -6.23431
       O    19.57148   10.95860   -5.79994
      H1    19.11176   10.15460   -6.08629
       H     9.72713    7.77338   -9.67900
       O    10.15580    6.93201   -9.97617
      H1    10.06791    7.00571  -10.95278
       H     9.76849    9.18181   -2.16524
       O    10.18189    9.46258   -1.36849
      H1    10.68799   10.29811   -1.52130
       H     9.11770    9.32171   -3.83331
       O     8.66357    8.69284   -3.19482
      H1     8.94523    7.86191   -3.59680
       H    11.62325   13.44906   -7.99200
       O    12.44334   13.08781   -8.30818
      H1    12.41276   13.32273   -9.25894
       H     8.94770   17.98124   -6.93878
       O     9.70736   17.88763   -6.40777
      H1     9.42263   17.07809   -6.01844
       H    10.84766   13.83373  -10.83273
       O    11.14803   12.88661  -10.75781
      H1    10.31332   12.49690  -10.50430
       H    17.26393   15.37498   -5.99197
       O    16.57275   15.03849   -6.56682
      H1    15.95384   14.64977   -5.89795
       H     7.71065    8.77688   -8.53340
       O     8.46349    9.00385   -9.11491
      H1     9.06333    9.40748   -8.51358
       H    16.89254    9.31459  -12.23921
       O    17.05115    8.64857  -12.93308
      H1    16.88432    7.82899  -12.44736
       H     8.67830   13.18636   -5.69386
       O     8.08596   13.04480   -4.99481
      H1     7.20038   13.14510   -5.38617
       H    12.72357    5.48059   -9.76463
       O    13.19275    5.01737  -10.46542
      H1    13.14908    5.57086  -11.25815
       H    13.11337   10.55615  -12.61979
       O    13.17371    9.76051  -12.03564
      H1    12.67160   10.15988  -11.28976
       H    14.33896   13.64299   -5.09432
       O    14.73913   14.46735   -4.77938
      H1    14.33297   15.11287   -5.42546
       H    16.35513   14.89213   -2.02582
       O    15.51257   15.48062   -1.95295
      H1    15.15150   15.40143   -2.87637
       H    12.91392   15.66311   -7.46499
       O    13.69674   15.77947   -6.86083
      H1    14.39440   15.44459   -7.43817
       H    13.19052   11.69701   -7.54292
       O    13.66322   11.16842   -6.90865
      H1    13.33165   10.27149   -7.05225
       H    18.01759    7.78275   -7.58026
       O    18.48915    8.14282   -6.80278
      H1    19.06686    7.45818   -6.45473
       H    11.07682    9.94538   -7.34832
       O    10.24983   10.40416   -7.31643
      H1    10.57581   11.33951   -7.10756
       H    13.38398   11.94885   -3.87816
       O    14.20738   11.68903   -4.32904
      H1    13.76813   11.29938   -5.05888
       H    16.00043   10.09197  -10.52523
       O    16.95724   10.22580  -10.43862
      H1    17.01850   11.17750  -10.60900
       H    18.68864   12.18197  -11.76237
       O    18.25174   12.64259  -11.01626
      H1    18.87404   12.71907  -10.30091
       H    12.70139   16.43580   -2.35646
       O    12.61064   17.35015   -2.65364
      H1    12.68638   17.83273   -1.79888
       H    16.65370   16.64841   -9.70091
       O    15.73345   16.89493   -9.40133
      H1    15.89344   17.64131   -8.78580
       H    13.17132   12.50843  -13.51474
       O    12.26474   12.14421  -13.38348
      H1    11.91068   12.65862  -12.62676

