180
frame 11 | Written by MDAnalysis XYZWriter (release 2.4.3)
       H    17.08015  -17.70605    1.53083
       O    16.70542  -16.97325    2.14363
      H1    16.69560  -17.31835    3.00073
       H     7.38167  -15.65277    4.22251
       O     7.96410  -14.96604    4.42684
      H1     8.77214  -15.20889    4.03652
       H    12.33205  -17.80894   15.73848
       O    12.65361  -17.09350   15.24183
      H1    13.61325  -17.34962   15.39368
       H    16.93699  -17.84792   -2.62367
       O    16.80711  -16.91337   -2.91577
      H1    17.79366  -16.62659   -2.90307
       H    12.93977  -14.41894   -2.87149
       O    12.75049  -15.00307   -2.11047
      H1    12.11364  -15.62815   -2.51950
       H     9.43023  -16.85666    6.09739
       O     8.80365  -16.56405    6.72413
      H1     8.33979  -15.82921    6.29114
       H    17.27090  -13.16045    7.21096
       O    17.07914  -13.79525    6.52345
      H1    16.46548  -13.24765    5.97273
       H    12.35698  -13.21919    2.80964
       O    11.66252  -13.52399    3.40145
      H1    10.91382  -13.01912    3.04150
       H    10.76537  -16.85569   -3.46274
       O    11.43820  -17.13728   -2.75663
      H1    11.91019  -17.82480   -3.22758
       H    19.61550  -15.63295    6.76381
       O    18.78469  -16.02377    6.42146
      H1    18.26294  -15.16695    6.41787
       H    14.52839  -18.56327   13.51764
       O    14.49812  -19.29962   12.91220
      H1    13.59765  -19.61352   12.86366
       H    18.25019  -18.32885   -0.03033
       O    17.48584  -18.87229    0.36884
      H1    16.92929  -18.98214   -0.38085
       H    16.50990  -13.42166   11.10213
       O    16.95928  -14.25704   11.28691
      H1    16.84720  -14.71254   10.45886
       H    14.00487  -17.21492    7.04190
       O    14.86619  -17.56903    7.41011
      H1    14.47885  -18.45748    7.66399
       H    10.25826  -16.62584   -0.20416
       O     9.92887  -16.87852    0.66324
      H1     9.22675  -16.19260    0.82931
       H    15.82563  -17.23918   14.28315
       O    15.52705  -17.52883   15.15257
      H1    15.81524  -18.46768   15.13010
       H    15.70485  -14.64735   -0.22536
       O    15.83364  -13.77483    0.19291
      H1    15.96353  -14.05398    1.09778
       H    11.34479  -14.89070   11.64117
       O    12.14342  -15.06655   12.15111
      H1    12.85163  -14.69686   11.59588
       H    18.28021  -15.73117   -5.23553
       O    17.69941  -14.93861   -5.22707
      H1    17.74352  -14.55830   -4.31388
       H    13.36303  -14.55725    1.80990
       O    13.77250  -13.71133    1.87219
      H1    14.18476  -13.65543    1.01788
       H    13.80421  -15.16564   13.82640
       O    14.05397  -14.36488   14.26874
      H1    13.13714  -14.01575   14.34088
       H    17.92036  -19.74944    9.55153
       O    17.96174  -19.60284    8.63410
      H1    18.15779  -18.65580    8.53771
       H    16.95228  -15.53180    8.05567
       O    16.81714  -15.93593    8.93982
      H1    16.12273  -16.62288    8.87500
       H    13.96323   -9.65638    3.07189
       O    14.63149   -9.14236    3.51910
      H1    15.35371   -9.09839    2.87732
       H    13.53953  -14.36615    9.37904
       O    13.66805  -13.95734   10.23982
      H1    13.33824  -13.04068   10.19392
       H    14.45990  -13.09475    5.16774
       O    15.06867  -13.59348    4.53038
      H1    14.49759  -13.51466    3.74282
       H     9.88456  -20.26470    0.31836
       O     9.14082  -19.65554    0.09857
      H1     9.33781  -18.96149    0.74964
       H    19.71234  -10.19836   -1.73744
       O    19.06539  -10.78110   -1.35863
      H1    18.26472  -10.25155   -1.33846
       H    14.80422  -18.68598    4.71851
       O    15.56965  -18.06441    4.78875
      H1    15.40476  -17.77577    5.70363
       H    18.27629  -20.08063    5.05560
       O    18.18886  -19.15414    5.38079
      H1    17.34904  -18.82603    4.94475
       H    10.20798  -12.80522    6.88174
       O    10.86987  -12.43733    7.45166
      H1    10.69851  -11.48231    7.48816
       H     9.26934  -15.44110   10.20858
       O     9.68959  -15.16356   11.08168
      H1     9.43587  -15.93269   11.64496
       H    15.89050  -16.86702   11.91882
       O    16.44184  -16.55813   12.65676
      H1    16.73811  -15.69100   12.28919
       H    16.59557  -11.38722   12.59988
       O    17.38088  -11.30033   13.15024
      H1    17.93195  -11.94351   12.70654
       H    14.19310  -15.85746    5.33504
       O    13.34626  -16.06501    5.73545
      H1    13.27518  -15.35956    6.32711
       H    11.42985  -18.02575   13.72109
       O    11.11405  -18.95169   13.82731
      H1    10.14619  -18.96355   13.46877
       H    15.22573  -16.77030   -1.57492
       O    14.74198  -16.29173   -0.89814
      H1    14.12399  -15.75175   -1.29781
       H    11.51915  -17.37620    5.58384
       O    11.50826  -18.25208    5.93576
      H1    11.35133  -18.14805    6.88584
       H    11.24043  -19.25863    9.00365
       O    10.45820  -18.94394    8.47960
      H1    10.07605  -18.16899    8.94217
       H    10.97115  -14.51964   -1.52375
       O    10.04459  -14.72826   -1.27264
      H1     9.65626  -14.27318   -2.00301
       H    10.89291  -16.74448    3.35833
       O    10.63678  -16.12892    4.08124
      H1    10.97771  -15.25367    3.80741
       H    18.45076  -17.60300   10.66231
       O    18.89729  -17.00834   10.02161
      H1    18.20304  -16.56937    9.51823
       H    11.43002  -17.61547    1.52078
       O    11.70687  -18.13704    2.28909
      H1    12.64955  -18.13008    2.28548
       H    16.85686  -11.71849    9.18499
       O    16.12418  -11.71890    9.83948
      H1    15.89447  -10.79970    9.87548
       H    16.57365  -14.44870   15.62158
       O    17.30211  -14.87190   15.18978
      H1    16.84321  -15.71183   14.92611
       H    13.72781  -11.16867    6.59741
       O    13.62126  -12.13609    6.44251
      H1    12.67880  -12.28227    6.66645
       H    18.27846  -13.45817    0.48536
       O    19.13332  -13.78815    0.27379
      H1    19.45666  -13.88064    1.18829
       H    14.95883  -16.91693    1.74156
       O    14.07709  -17.25182    1.53838
      H1    13.95887  -16.96669    0.61888
       H     7.59055  -16.95387    9.59852
       O     8.56267  -16.94730    9.45580
      H1     8.67149  -16.75776    8.51586
       H    17.62889   -9.82628    6.86184
       O    17.80702  -10.75932    7.07738
      H1    18.75696  -10.61719    7.32414
       H    18.14601  -11.60500    4.99502
       O    17.97437  -11.58843    4.05704
      H1    17.78041  -12.56181    3.95152
       H    19.08260  -14.90731   -1.35877
       O    19.18992  -15.49877   -2.11265
      H1    19.93865  -15.06908   -2.66074
       H    17.71879  -17.94593   12.49819
       O    18.38959  -18.60042   12.21915
      H1    18.77756  -18.91631   13.06579
       H    16.09054  -16.68145   -4.56471
       O    15.47242  -16.92167   -5.30624
      H1    14.81521  -17.50638   -4.91467
       H    16.68636  -11.15592    0.18854
       O    16.50757  -10.26017   -0.15813
      H1    17.12042   -9.77565    0.48821
       H    19.10702  -17.64403    4.20372
       O    19.46900  -16.74647    4.14341
      H1    19.25921  -16.38343    5.07373
       H    16.80378  -14.03639    3.36850
       O    17.51125  -14.20680    2.76769
      H1    17.23770  -15.06549    2.39425
       H    14.80600  -18.68115   10.49452
       O    14.96366  -17.70792   10.41236
      H1    14.06737  -17.44571   10.47520
       H     9.22249  -18.76546   -1.39553
       O     8.98078  -18.39733   -2.25725
      H1     9.82358  -18.19889   -2.68248
       H    11.96671  -16.61057   11.15739
       O    12.23149  -17.44978   10.66704
      H1    11.62406  -18.12026   10.98651

