180
frame 10 | Written by MDAnalysis XYZWriter (release 2.4.3)
       H    17.72996   16.48144    3.36871
       O    18.08935   16.20712    2.52363
      H1    17.47411   15.47417    2.30711
       H    17.34570    6.39355    7.50544
       O    18.18716    5.87170    7.62244
      H1    18.85155    6.39566    7.19896
       H    16.14902    6.23822   10.79614
       O    15.24754    6.61219   10.73687
      H1    14.83332    6.48163   11.59125
       H    14.80527   12.12027    4.66975
       O    15.69725   11.88624    4.39177
      H1    15.60903   11.83580    3.43166
       H    14.83550   15.15674    3.06477
       O    13.92139   15.30427    3.27003
      H1    13.99430   15.94197    3.92935
       H    13.52142    8.21891    2.05630
       O    13.39694    7.30395    1.97022
      H1    13.30629    7.14009    1.01322
       H    17.82678   10.93906   13.19734
       O    17.67139   10.74653   14.12107
      H1    18.28422   11.32465   14.56978
       H    16.40936   13.62571    3.47177
       O    16.54785   14.09612    2.62667
      H1    16.28407   13.51181    1.88612
       H    11.33168    8.84369   11.29616
       O    11.85664    9.54155   11.67967
      H1    12.11758   10.13280   10.92869
       H    18.23675    6.91325   10.37686
       O    17.87782    5.99516   10.35305
      H1    17.93688    5.81466    9.36614
       H    13.06404   11.72049    9.22225
       O    12.25551   11.46362    9.69518
      H1    11.66422   12.23526    9.93208
       H    14.18313   17.03574    8.71250
       O    14.07266   17.77130    9.32380
      H1    14.89014   18.14847    9.56169
       H    14.08849   11.15776   11.48886
       O    14.72409   10.57774   11.00550
      H1    14.34089   10.35855   10.09930
       H    14.17234    8.82895   13.80018
       O    13.26562    8.90977   14.12297
      H1    12.66851    8.79159   13.33742
       H    10.08524   17.18093   12.01508
       O    10.58953   16.95540   11.27791
      H1    11.56194   17.05308   11.56277
       H    11.98507    8.07616    7.24257
       O    12.59725    8.55736    6.69323
      H1    12.07487    9.31779    6.37250
       H    18.60236    8.28380    3.56253
       O    18.72341    8.59816    4.44159
      H1    19.34553    7.98004    4.88679
       H    10.54678   18.04826    9.76434
       O    10.40620   18.46481    8.85718
      H1     9.56185   18.93651    8.86008
       H    16.58015    8.35768    4.71469
       O    15.77591    8.50011    4.20200
      H1    15.28793    7.72687    4.42181
       H    17.41101   14.28660    9.51785
       O    17.85346   15.09098    9.86942
      H1    17.76084   14.84959   10.80244
       H    17.08824   12.13096    5.60833
       O    17.64327   12.43652    6.34671
      H1    18.55543   12.16481    6.14238
       H    15.61190    8.11980    7.66648
       O    15.47174    7.18329    7.69762
      H1    15.49265    6.93187    8.62228
       H    10.09208   10.38280    5.53253
       O    10.31745   10.30235    4.59395
      H1     9.53842    9.96321    4.22460
       H    13.12140   16.85312    6.14926
       O    13.79017   16.11171    6.29044
      H1    14.62242   16.44167    5.95266
       H    12.70233   15.37764    2.19863
       O    11.97216   15.59993    1.57737
      H1    12.18753   16.45742    1.19382
       H     8.96070   14.26804    5.29132
       O     9.39786   13.51974    4.91119
      H1    10.32854   13.66115    4.70570
       H    17.22171   11.85698    9.56912
       O    17.01563   12.63791    9.07265
      H1    17.20430   12.28272    8.16108
       H    13.25654    7.22955    4.11797
       O    13.38248    6.61321    4.84628
      H1    13.06479    7.06401    5.62996
       H    13.50775   14.25734    5.96383
       O    13.51345   13.28066    5.91100
      H1    13.63115   12.95545    6.86500
       H    14.02617   11.59176   15.75648
       O    13.17388   11.44832   15.36079
      H1    13.07864   10.51757   15.08137
       H     8.16844   16.18680    6.41452
       O     8.80283   16.11517    5.73317
      H1     8.38315   16.38426    4.87047
       H    10.14343    6.79398   10.97175
       O     9.87875    7.57260   10.41836
      H1     8.95428    7.70847   10.60237
       H     7.16856   11.60376   10.66827
       O     7.76290   10.80428   10.84130
      H1     8.64068   11.19307   10.95352
       H    15.33971   12.44598    8.70490
       O    14.53863   12.11851    8.23279
      H1    14.82143   11.43840    7.67462
       H     9.33975   11.89076   13.47251
       O     9.93515   11.64648   12.71666
      H1    10.36715   10.94516   13.14069
       H    14.36024    9.10193    6.73444
       O    15.03881    9.80235    6.73395
      H1    15.52806    9.67934    5.92794
       H    10.55962    6.69028    8.72573
       O    11.23015    6.52689    8.05555
      H1    10.70265    6.20268    7.29210
       H    11.16544   11.29437    8.22368
       O    10.81387   11.05236    7.34723
      H1    10.79746   11.90764    6.94792
       H    15.38869   14.73450   12.93373
       O    14.50935   14.89598   13.30289
      H1    13.99382   14.10918   13.07401
       H    10.99575   17.65809    7.34330
       O    11.31183   17.23301    6.55685
      H1    10.53939   16.67609    6.18846
       H     8.01953   12.29860    6.47020
       O     7.88122   11.41300    6.77913
      H1     8.61805   11.34044    7.38489
       H    13.28169    6.58683   13.67624
       O    13.46274    6.24432   12.78802
      H1    13.37918    5.27028   12.81341
       H    10.91539    8.33948    3.16657
       O    10.84981    7.50196    2.73685
      H1    11.75037    7.24359    2.51884
       H    10.64225   14.53440   11.03417
       O    10.57525   13.54352   11.00726
      H1    10.39211   13.27281   11.92403
       H    17.82853   10.08293   11.17530
       O    17.43410   10.96887   11.46161
      H1    16.48873   10.81875   11.56086
       H    19.16630   15.23008    6.76472
       O    18.17977   15.13138    6.78305
      H1    18.02036   14.13548    6.66684
       H    18.09706   16.89132    8.80947
       O    18.51986   17.54732    8.24511
      H1    17.80296   17.98966    7.69068
       H    13.70555   16.50217   12.49115
       O    13.24417   17.16208   11.95882
      H1    13.71562   17.13502   11.11990
       H    14.67028   14.80005   14.99555
       O    14.61696   14.87406   15.98455
      H1    15.54470   15.08036   16.19715
       H    17.39783   16.23309    5.42444
       O    16.87486   16.75024    4.81049
      H1    16.83057   17.64736    5.13900
       H    16.30561   11.48922   15.19997
       O    15.75231   12.15119   15.67128
      H1    15.60227   12.83321   15.00635
       H    12.39045   12.53991   12.41802
       O    13.30198   12.54777   12.74227
      H1    13.20905   12.19186   13.64017
       H    12.78140    6.02538    8.91089
       O    13.38126    5.42300    9.38503
      H1    14.03442    5.90870    9.90659
       H    14.63626   10.79182    1.77946
       O    14.22445   10.12947    2.35671
      H1    14.99640    9.71488    2.71256
       H    19.25008    9.13204    9.97401
       O    18.62312    8.62503   10.54692
      H1    19.29897    8.29574   11.23590
       H    12.42078   12.68371    4.10607
       O    11.61569   12.49045    3.57302
      H1    11.28216   11.64627    3.81343
       H    17.41654   15.56569   13.48870
       O    17.33963   14.76110   12.95245
      H1    17.90059   14.05633   13.36793
       H    19.83337   13.84448   11.48113
       O    19.47868   12.99127   11.06771
      H1    18.55044   12.81983   11.23383
       H    15.48980    8.83579   12.60772
       O    15.85891    8.61929   13.51629
      H1    16.44655    9.37281   13.78333
       H     8.86270   12.36283    3.24722
       O     8.25505   12.25529    2.50864
      H1     8.77267   11.84344    1.81785

