180
frame 10 | Written by MDAnalysis XYZWriter (release 2.4.3)
       H     7.57017  -16.06448    4.35907
       O     7.92086  -15.34640    4.85037
      H1     8.84317  -15.64274    4.91549
       H     4.22220  -17.66331   -2.08846
       O     4.79966  -18.29540   -1.67414
      H1     4.50224  -18.32520   -0.72785
       H     5.74184  -16.90974    5.73550
       O     5.68492  -17.26615    6.70704
      H1     6.59542  -17.71741    6.79957
       H     1.41850  -12.85546   -0.54261
       O     2.02907  -13.29097   -1.18907
      H1     2.89110  -12.82801   -0.95868
       H     6.12218  -12.80335    1.89452
       O     6.66095  -12.24526    1.40226
      H1     7.09108  -11.65727    2.04121
       H    -3.45447  -17.71852   -0.66073
       O    -2.83851  -18.38073   -0.33180
      H1    -3.01755  -19.13380   -0.92931
       H    -1.41958  -13.75357    4.02890
       O    -1.85427  -13.05204    3.53523
      H1    -2.34290  -12.54097    4.20408
       H     0.29055  -13.84414   -6.10450
       O     0.71524  -14.71176   -6.28377
      H1     0.42569  -15.29241   -5.58364
       H     9.88169  -17.59253    6.55472
       O     8.93384  -17.58166    6.83655
      H1     8.54830  -16.87900    6.32325
       H     1.95237  -14.41200    8.07264
       O     2.24022  -13.46860    7.98427
      H1     1.71423  -13.25453    7.15739
       H    -1.29464  -15.17609    8.57054
       O    -0.67842  -14.56872    8.18884
      H1    -0.50153  -14.92239    7.29760
       H     9.15051  -11.06614    4.29285
       O     8.56622  -11.50161    3.64323
      H1     7.62704  -11.35188    3.90584
       H     0.49126  -19.33013    5.59035
       O     0.23596  -18.84730    6.40108
      H1    -0.57433  -18.36084    6.05219
       H     8.50316  -15.32710   -4.68527
       O     9.27805  -15.90223   -4.64331
      H1     9.89836  -15.15299   -4.48392
       H    -1.55482  -11.27305    1.32367
       O    -2.52589  -11.06330    1.43273
      H1    -2.78747  -11.70155    2.10933
       H     4.86559  -19.72135    3.50436
       O     4.18638  -19.07930    3.39796
      H1     4.34265  -18.82040    2.49264
       H     9.62735  -16.69030   -0.16800
       O     9.49001  -16.71877    0.79863
      H1     9.35314  -15.77244    0.92423
       H    -3.62765  -17.50895   -2.40752
       O    -4.33413  -16.88900   -2.18830
      H1    -5.01704  -17.21540   -2.77835
       H     6.74268  -15.14442   -2.86066
       O     6.82279  -14.72201   -3.69692
      H1     5.89375  -14.56644   -3.90920
       H     3.05198  -16.03404   -2.87709
       O     2.71695  -16.89208   -2.55278
      H1     1.78663  -16.74630   -2.87712
       H     1.28612  -11.69392    1.38946
       O     0.62292  -12.43552    1.22611
      H1    -0.06929  -12.38288    1.94622
       H     7.15232  -15.70112    1.44006
       O     6.62788  -16.49377    1.39680
      H1     6.81215  -16.62662    0.46139
       H     3.94819  -17.52228    7.87310
       O     3.22825  -17.38921    8.57296
      H1     3.17019  -18.25815    8.97920
       H     7.75517  -16.83583   -1.55997
       O     6.88007  -16.37004   -1.47599
      H1     6.26858  -17.05248   -1.64015
       H     2.77371  -17.33680    3.20525
       O     2.19107  -16.60424    3.49874
      H1     2.41316  -16.60991    4.44535
       H    -3.62798  -18.35753    3.52958
       O    -3.25477  -17.53237    3.21851
      H1    -2.29869  -17.75663    3.00176
       H     4.38431  -11.08960   -0.29801
       O     4.33067  -11.98608    0.06894
      H1     5.22720  -12.15987    0.32130
       H     0.48852   -8.81544    1.27685
       O     1.25399   -9.28108    0.96417
      H1     1.72699   -9.66089    1.72318
       H     0.79775  -10.25422   -0.64610
       O     0.89768  -10.46792   -1.55436
      H1     0.15581   -9.97058   -1.98142
       H     7.54712  -13.81896    6.06787
       O     7.80862  -12.89403    6.09859
      H1     8.22657  -12.75417    5.27509
       H     1.95551  -13.75177    2.40975
       O     2.79265  -14.19878    2.59745
      H1     2.61350  -15.09112    2.95084
       H     5.87122  -17.74596   -5.67722
       O     4.92762  -17.55935   -5.40790
      H1     4.42765  -17.47018   -6.26330
       H     0.68607  -11.91149    5.16813
       O     0.77379  -12.46354    5.93225
      H1     0.09308  -12.14174    6.50924
       H     6.30100  -12.01921    5.25551
       O     5.89770  -11.46154    4.56721
      H1     5.29270  -12.10684    4.14809
       H     8.98812  -19.30827    1.12889
       O     8.13707  -19.24958    0.68586
      H1     7.82701  -18.36552    0.87858
       H     2.51446  -11.66564   -3.95600
       O     2.32368  -12.43737   -4.53807
      H1     2.24822  -13.14308   -3.84820
       H     2.20389  -14.76344   -6.59807
       O     3.23992  -14.78602   -6.69762
      H1     3.33968  -15.73018   -6.95654
       H     5.34543  -14.75220    3.14290
       O     5.29635  -13.77449    3.10147
      H1     4.36074  -13.71902    3.01249
       H    -4.80106  -14.21027   -1.15941
       O    -3.91410  -14.13206   -0.59670
      H1    -3.33748  -14.59041   -1.23619
       H    10.55440  -14.70557   -1.77702
       O     9.64763  -14.72216   -1.46616
      H1     9.17888  -14.40284   -2.25236
       H     6.32924  -16.87979    2.94932
       O     6.17063  -17.11929    3.94729
      H1     5.58733  -17.85596    3.84037
       H     8.62068  -19.30485   -5.38255
       O     7.81097  -18.72583   -5.42096
      H1     7.10070  -19.43473   -5.37035
       H     1.15091  -16.81218    6.11461
       O     1.99318  -16.37019    6.31476
      H1     2.33208  -16.89012    7.05336
       H    10.53636  -17.14847    2.12012
       O    11.24796  -17.53288    2.65276
      H1    12.01891  -17.32930    2.08012
       H    -0.63283  -10.70699    4.38543
       O    -0.07111  -10.59193    3.60385
      H1     0.37115   -9.72996    3.87066
       H    -0.17671  -13.88762   -1.49187
       O    -0.96258  -14.39345   -1.29969
      H1    -0.98279  -14.43753   -0.35977
       H    -4.15461  -16.60278    1.96763
       O    -4.63664  -16.00722    1.40608
      H1    -3.94952  -15.46596    1.02661
       H    -2.37969  -19.09833    6.00865
       O    -2.39153  -18.12779    5.86243
      H1    -2.72617  -17.99010    4.91609
       H     6.05337   -9.36625   -1.90885
       O     6.54758  -10.23387   -1.93217
      H1     6.12673  -10.76668   -2.66683
       H     7.90222  -13.53329    1.31258
       O     8.30156  -14.37460    1.12081
      H1     8.34680  -14.36314    0.14956
       H    -0.42739  -18.74372   -5.10056
       O    -0.39429  -17.91342   -5.63080
      H1    -1.33828  -17.85526   -5.85358
       H     5.04821  -12.82718   -3.63020
       O     5.56316  -12.01584   -3.66792
      H1     6.34228  -12.24413   -4.17058
       H     4.15206  -16.83732    0.81599
       O     3.93400  -17.79499    0.94407
      H1     2.93304  -17.70292    0.83505
       H     4.12756   -9.95141    2.21727
       O     3.48160  -10.65059    2.15984
      H1     3.77529  -11.13628    1.34007
       H     4.59800  -15.90281   -4.41642
       O     4.10192  -15.01540   -4.17235
      H1     3.79364  -14.80654   -5.08181
       H    -1.14271  -15.95236    4.76574
       O    -0.77093  -15.18035    5.28779
      H1     0.13122  -15.32130    4.89388
       H    -0.38374  -18.21307    3.88902
       O    -0.49068  -17.38741    3.34584
      H1     0.44273  -17.37315    2.98109
       H    -0.53610  -16.62228   -3.71426
       O     0.21356  -16.23723   -3.20949
      H1    -0.22344  -15.73082   -2.49539
       H     5.73037  -15.70875    7.63416
       O     6.17554  -15.03525    8.16848
      H1     5.64220  -14.21928    8.03172
       H     9.28635  -18.45745   -0.88089
       O     9.09667  -18.03812   -1.71700
      H1     9.94589  -17.64387   -1.98330

