180
frame 8 | Written by MDAnalysis XYZWriter (release 2.4.3)
       H    16.68013   -1.08338   11.80243
       O    16.51894   -1.00152   10.83413
      H1    17.29455   -1.56490   10.49989
       H    14.08214    0.41861   18.96600
       O    14.85380   -0.00391   18.65336
      H1    15.57961    0.39910   19.17585
       H    19.16190   -1.69513   16.45986
       O    18.77769   -1.54719   17.32781
      H1    18.02524   -0.97242   17.18511
       H    17.74325    1.66862   10.33008
       O    16.83759    1.69805   10.72931
      H1    16.55592    0.78483   10.62479
       H    14.14642    1.31563   11.65586
       O    13.42490    1.23965   10.97349
      H1    13.42157    0.25851   11.14860
       H    15.69521   -1.38479    9.11530
       O    15.24763   -1.27299    8.23602
      H1    14.89954   -0.46011    8.58429
       H    12.08010   -2.12525   16.23009
       O    12.88189   -2.32195   16.75857
      H1    12.79185   -1.72945   17.49900
       H     9.99846   -3.83533   15.06191
       O     9.86682   -4.82492   14.93154
      H1     9.98350   -5.18828   15.77754
       H    11.73918   -5.20421   14.67701
       O    12.64363   -5.50562   14.39567
      H1    12.42057   -6.46608   14.25581
       H    14.15493    1.54704    9.19928
       O    14.31378    1.25232    8.27433
      H1    14.42068    2.15050    7.81659
       H    18.32498   -7.45562   12.31206
       O    18.95200   -7.33017   11.60489
      H1    18.36018   -6.89640   10.98591
       H    14.89255  -11.15858   18.66084
       O    14.31523  -11.52591   17.96647
      H1    14.82823  -11.19430   17.20448
       H    18.61826   -4.08496   14.34351
       O    17.96487   -4.40960   13.67105
      H1    18.44664   -4.43990   12.82097
       H    17.05959  -13.69195   17.00295
       O    17.17900  -13.21005   17.81561
      H1    16.96346  -12.34280   17.51544
       H     9.37267   -7.50404   16.97580
       O    10.27677   -7.19304   16.80672
      H1    10.55914   -7.03613   17.68530
       H    11.57645   -1.28297   11.24705
       O    12.52385   -1.27997   11.08422
      H1    12.84251   -1.73440   11.87914
       H    10.72110   -6.05900   11.08842
       O    10.55283   -6.89403   10.68932
      H1    10.52621   -7.45718   11.51256
       H    11.84326   -4.02496    9.86884
       O    11.62563   -4.25080   10.78094
      H1    10.89235   -3.64859   10.98781
       H    17.53592   -7.23176   17.27162
       O    17.46116   -8.01431   17.88395
      H1    16.52913   -7.86335   18.13315
       H    15.21352   -6.74886   14.09196
       O    15.33352   -6.69560   13.13695
      H1    15.77918   -5.86666   12.94241
       H    19.04489    4.99614   14.61220
       O    18.73363    5.13321   15.52298
      H1    18.37398    4.24106   15.68871
       H    16.89041   -7.65299   13.82839
       O    17.55385   -8.40575   13.82884
      H1    17.10962   -9.24092   13.79529
       H    14.00224   -4.44633   13.12477
       O    14.27062   -3.96968   12.29359
      H1    13.38203   -4.07347   11.84085
       H    19.10097  -10.63990    9.15389
       O    18.81890  -10.80698    8.21786
      H1    18.38545   -9.93968    8.04638
       H    17.12174   -0.27963   14.41174
       O    17.32382    0.58249   14.69953
      H1    18.09740    0.72781   14.17812
       H    18.65314  -11.24093   10.94536
       O    19.58651  -10.92847   10.81289
      H1    19.67166  -10.31465   11.64370
       H    17.26283    2.38741   16.09342
       O    17.82714    2.88498   16.69942
      H1    18.50765    2.20129   16.82740
       H    16.46710   -8.18076    7.16713
       O    17.13522   -8.51679    7.81567
      H1    18.00662   -8.18602    7.45660
       H    13.90690   -1.94005   15.15490
       O    14.04452   -1.31374   14.43289
      H1    14.06006   -0.52345   14.95718
       H    15.10208   -4.04749   10.85142
       O    15.51112   -4.20951    9.97426
      H1    15.74193   -5.11582   10.17004
       H    14.42154    1.98880   16.26015
       O    14.67725    1.04755   16.19207
      H1    14.87357    0.85180   17.12570
       H    12.08287   -3.74886   17.33455
       O    11.38900   -4.33355   17.66847
      H1    11.83816   -4.92350   18.31539
       H    16.04790    1.64342   12.66167
       O    15.27708    1.60110   13.20959
      H1    15.69459    1.31697   14.04185
       H    16.44913  -10.67334   15.56339
       O    16.32734  -10.64543   16.59133
      H1    16.82946   -9.81976   16.87282
       H    15.24059  -11.33088   13.76307
       O    16.12294  -10.95788   13.58049
      H1    16.27741  -11.26899   12.66361
       H    14.70283   -8.02400   10.73760
       O    15.27779   -8.80808   10.97017
      H1    15.31130   -8.74032   11.95356
       H    11.48520   -7.81763   15.69706
       O    12.31425   -8.17499   15.37977
      H1    12.09757   -9.05933   15.03049
       H    17.42235   -5.26724   16.72671
       O    18.07088   -5.91124   16.26360
      H1    17.71317   -5.86961   15.36115
       H    11.12316   -9.77663   12.56121
       O    10.76528   -9.32470   11.80761
      H1     9.98156   -9.83603   11.63309
       H    13.35469   -6.18292    8.85568
       O    13.75816   -6.45437    9.72011
      H1    12.98087   -6.27812   10.30244
       H    16.34273   -3.56769   18.67448
       O    16.44263   -3.80282   17.75919
      H1    16.78283   -3.04099   17.34292
       H    11.76610    2.86123   16.53988
       O    11.55906    2.14664   15.84649
      H1    12.48387    1.95185   15.45088
       H    16.79399   -1.46058    5.70432
       O    17.26322   -0.96135    6.42949
      H1    16.71151   -1.19136    7.22097
       H    16.42202   -7.36758   10.57947
       O    16.80212   -6.66343   10.05099
      H1    16.68277   -7.04608    9.17424
       H    16.39618  -11.47580    9.82532
       O    16.59284  -11.32293   10.80394
      H1    16.27138  -10.43535   10.92605
       H    11.83301   -5.50204    6.87749
       O    12.29838   -6.31953    7.14531
      H1    11.61344   -6.69264    7.68792
       H    12.44909   -8.94482   17.32175
       O    12.24066   -9.51375   18.10327
      H1    12.89733  -10.20818   17.96961
       H    13.68783  -10.70221   10.37529
       O    13.40509  -11.51511   10.72185
      H1    12.75849  -11.72338   10.01750
       H    15.40627   -6.71699   16.39270
       O    15.09360   -7.34867   15.76287
      H1    14.14045   -7.21290   15.70042
       H    17.97803   -3.38054    9.70481
       O    18.32081   -2.48486    9.56713
      H1    18.79088   -2.30957   10.43286
       H    14.08422   -2.36452    5.67717
       O    13.16950   -2.60846    6.06617
      H1    13.40982   -2.77123    6.98108
       H    12.59733  -11.23373   14.18512
       O    11.98875  -10.48082   14.11093
      H1    11.05736  -10.87515   13.96999
       H    16.77748   -2.49323   13.89539
       O    16.62664   -1.58975   13.58574
      H1    15.70430   -1.52370   13.85346
       H     9.10117   -3.25360   12.53644
       O     9.96336   -2.80924   12.41463
      H1     9.71053   -1.85689   12.25072
       H    18.39117    3.91592   12.40689
       O    18.66151    4.82646   12.66285
      H1    17.80868    5.32819   12.63006
       H    10.42258   -0.95654   15.10229
       O    10.65757   -1.87333   15.03387
      H1    10.38746   -2.16362   14.12624
       H    15.32640   -8.88070   19.02409
       O    14.83151   -8.14833   18.71223
      H1    13.97803   -8.67691   18.71888
       H    14.75449   -6.99333    5.06819
       O    14.89535   -6.96439    6.04306
      H1    14.11946   -6.52655    6.33590
       H    14.64051    3.54365   13.46604
       O    14.76168    4.42927   13.84684
      H1    13.78273    4.72853   13.93575
       H    13.97103   -3.86037    8.95909
       O    13.18449   -3.35804    8.62547
      H1    13.06206   -2.61085    9.20016

