180
frame 7 | Written by MDAnalysis XYZWriter (release 2.4.3)
       H   -12.45849  -18.60191   -7.11050
       O   -12.14249  -19.12640   -7.87081
      H1   -11.76216  -19.93115   -7.53243
       H   -14.42076  -18.32991   -5.47608
       O   -13.52517  -18.03922   -5.81686
      H1   -13.37158  -17.06409   -5.65597
       H   -19.43119  -10.56333  -13.85621
       O   -19.06625   -9.79537  -14.40220
      H1   -18.47894   -9.42433  -13.71795
       H   -14.15612  -14.42938   -8.34222
       O   -14.98463  -14.41001   -7.83946
      H1   -15.20348  -15.35132   -7.75244
       H   -12.02639  -14.62257  -13.68843
       O   -11.49936  -15.05631  -14.40633
      H1   -12.16887  -15.72010  -14.79187
       H   -12.05108   -9.83835  -10.24409
       O   -12.43882   -9.37999  -11.00762
      H1   -12.81825  -10.09111  -11.51896
       H   -12.60880  -12.84529   -8.93385
       O   -12.70079  -13.80293   -9.20314
      H1   -11.90215  -14.21309   -8.85657
       H   -17.04552  -16.45385  -18.76182
       O   -17.39905  -15.62983  -18.32743
      H1   -18.05680  -15.40694  -19.03564
       H   -19.94243  -14.00978  -10.49905
       O   -19.89424  -13.40609   -9.77028
      H1   -18.94270  -13.27586   -9.56018
       H   -10.41512  -18.33840   -8.44021
       O    -9.55681  -17.94459   -8.62944
      H1    -9.80031  -16.98181   -8.48809
       H   -17.86064  -13.05124   -3.84465
       O   -17.73636  -13.05397   -2.89896
      H1   -18.57241  -12.73962   -2.51353
       H   -12.36883  -15.98769  -17.33584
       O   -11.77843  -16.72428  -17.25643
      H1   -11.82316  -17.16976  -18.11935
       H   -14.76362  -17.31046  -13.93672
       O   -13.80064  -17.43317  -13.82660
      H1   -13.61342  -17.34194  -12.89019
       H   -16.76568  -13.00170  -13.40748
       O   -16.56005  -13.22140  -12.45639
      H1   -15.60119  -13.39032  -12.50238
       H   -16.98050  -12.65847  -15.55556
       O   -16.25213  -13.16939  -15.18609
      H1   -15.93555  -13.52361  -15.99841
       H   -10.92513  -16.19829   -5.08494
       O   -11.53860  -15.73277   -5.63380
      H1   -11.20045  -14.82898   -5.46658
       H   -14.22160  -12.31215  -15.09140
       O   -13.36121  -11.87404  -15.18203
      H1   -13.28771  -11.68690  -14.23683
       H   -18.05290  -11.66402   -5.45536
       O   -17.23862  -11.49736   -5.03475
      H1   -17.54368  -11.10738   -4.17208
       H   -10.46545  -12.10549  -11.77622
       O   -10.96326  -11.57595  -12.45765
      H1   -11.22159  -10.76971  -12.02773
       H   -14.98241   -9.40411   -9.54646
       O   -15.63758   -9.08148   -8.94687
      H1   -15.08732   -8.75072   -8.23534
       H   -12.49348  -10.80004   -8.16247
       O   -12.13037  -11.26112   -8.93908
      H1   -11.23448  -10.98524   -9.00471
       H   -13.96091  -12.20964  -11.50009
       O   -13.83795  -11.56470  -12.29310
      H1   -14.58122  -10.95201  -12.11383
       H   -19.57814  -15.11150   -7.67719
       O   -19.06743  -14.90056   -6.87269
      H1   -19.00755  -15.85710   -6.52817
       H    -8.07536  -13.32997   -7.84566
       O    -8.07080  -14.28862   -7.92835
      H1    -8.08796  -14.61221   -7.03472
       H   -12.30494  -14.03866  -18.09977
       O   -12.91496  -14.50440  -18.66472
      H1   -13.42422  -13.74899  -19.03681
       H   -19.04897   -9.59954   -9.84135
       O   -18.95294  -10.45094  -10.30925
      H1   -19.28993  -11.09177   -9.65391
       H   -11.39683  -12.77438   -5.13186
       O   -11.16429  -13.15266   -6.01006
      H1   -11.98141  -13.18508   -6.51228
       H   -14.66429  -17.21115  -16.56319
       O   -14.55275  -18.16105  -16.64251
      H1   -13.56654  -18.24179  -16.62288
       H   -17.93512  -14.51359   -8.01677
       O   -17.47445  -14.22911   -8.88122
      H1   -16.61175  -14.23939   -8.49840
       H   -17.96597  -15.34953   -2.66032
       O   -17.72026  -16.20492   -3.03605
      H1   -16.83739  -16.29320   -2.60938
       H    -8.71414  -15.74600  -12.29453
       O    -8.36259  -15.17358  -11.57814
      H1    -8.05854  -15.83014  -10.94997
       H   -12.36861  -14.23920  -11.11600
       O   -12.65107  -14.52265  -11.97265
      H1   -12.35861  -15.48665  -12.00468
       H    -7.72343  -18.62231   -7.95089
       O    -6.89017  -19.02671   -7.70641
      H1    -6.17077  -18.58880   -8.29170
       H   -15.73848  -18.57257  -15.22337
       O   -16.52172  -18.54975  -14.62023
      H1   -16.47351  -19.42056  -14.20284
       H   -19.68673  -17.23212   -8.90036
       O   -18.76977  -17.71867   -8.82955
      H1   -18.99485  -18.34853   -8.15512
       H   -17.13407  -16.21265  -14.38933
       O   -16.30022  -15.68373  -14.27697
      H1   -16.57402  -14.84760  -14.61952
       H   -11.74796  -19.12239  -14.12337
       O   -10.87684  -19.29672  -13.80936
      H1   -10.50209  -18.36409  -13.78099
       H   -14.23585  -14.13295   -4.22992
       O   -13.87896  -14.64198   -3.47816
      H1   -14.57192  -14.59959   -2.83118
       H   -18.21991  -19.77490  -11.46784
       O   -17.64762  -19.30462  -10.89717
      H1   -18.25613  -19.00855  -10.24747
       H    -8.54408  -13.43511  -11.15948
       O    -8.60105  -12.51755  -11.48913
      H1    -7.78072  -12.48998  -11.98483
       H   -16.86132  -10.89766  -12.41450
       O   -16.57613  -10.25435  -11.76855
      H1   -17.27750  -10.49189  -11.11637
       H   -17.03767  -15.13516  -12.09748
       O   -17.31526  -15.66077  -11.35852
      H1   -17.48040  -14.98873  -10.65247
       H   -18.06149  -17.16019  -16.59572
       O   -18.63493  -17.33499  -15.82505
      H1   -17.95982  -17.72785  -15.22868
       H   -13.39636  -17.02999  -10.89375
       O   -12.51323  -17.21344  -11.26212
      H1   -12.49494  -18.19945  -11.14993
       H   -16.83142  -18.53487   -5.16928
       O   -15.96407  -18.84765   -4.84461
      H1   -16.28099  -19.61454   -4.38656
       H   -14.49960  -17.75846   -2.67425
       O   -15.45311  -17.94848   -2.39448
      H1   -15.88233  -18.07243   -3.26412
       H   -11.68701  -12.51944  -16.44172
       O   -11.46175  -13.42921  -16.64886
      H1   -11.53756  -13.68696  -15.72009
       H    -8.91342  -18.24512  -11.82636
       O    -8.09582  -18.02716  -11.30628
      H1    -8.46420  -18.12291  -10.43689
       H   -13.65724  -11.49915   -6.01780
       O   -13.27816  -10.72567   -6.44563
      H1   -13.21623  -10.14976   -5.61612
       H   -20.04095  -11.38859   -6.93088
       O   -19.77511  -10.79399   -7.63343
      H1   -18.94902  -10.34060   -7.30596
       H   -15.65712  -18.06886  -10.65736
       O   -15.30766  -17.15971  -10.54823
      H1   -16.00799  -16.61237  -10.91481
       H   -15.67428  -15.05937  -17.66027
       O   -14.91172  -15.15800  -17.06287
      H1   -14.19516  -15.06981  -17.74229
       H   -15.48921  -17.66809   -7.60656
       O   -16.12931  -17.02707   -7.35773
      H1   -16.70029  -17.04238   -8.16749
       H   -18.00924  -16.72842   -4.82613
       O   -18.17561  -17.27488   -5.61148
      H1   -17.47358  -17.00818   -6.24621
       H   -11.03133  -15.47481   -7.37597
       O   -10.70856  -15.36037   -8.28429
      H1    -9.87142  -14.86838   -8.13259
       H   -15.54783  -18.57569  -18.32982
       O   -16.34065  -18.29672  -18.82130
      H1   -15.87529  -18.10887  -19.64407
       H    -9.07222  -16.93379  -14.57438
       O    -9.47916  -17.02369  -13.69609
      H1   -10.09918  -16.37204  -13.62407
       H   -18.79780  -11.26329  -15.34018
       O   -18.54444  -12.01885  -15.95385
      H1   -19.40842  -12.37696  -16.18121
       H   -12.97651  -16.52200   -3.49088
       O   -12.85794  -17.22258   -2.84945
      H1   -12.64845  -17.82796   -3.59967
       H   -15.47976  -12.41155   -5.51263
       O   -14.64071  -12.89325   -5.62269
      H1   -14.68773  -13.38746   -6.47367

