180
frame 7 | Written by MDAnalysis XYZWriter (release 2.4.3)
       H    18.28033    4.81479    6.26189
       O    17.91566    3.95287    6.64447
      H1    17.03059    4.28493    7.01290
       H    17.73721    7.05548    5.76512
       O    18.49578    6.47202    5.92279
      H1    19.24887    6.86521    5.39941
       H    16.34014    6.57450   10.87842
       O    15.52379    7.01795   10.61078
      H1    14.89771    6.44557   11.04962
       H    18.85057    6.03897    9.63757
       O    18.37549    5.57769   10.35846
      H1    18.96247    4.80778   10.53172
       H    16.47670   13.17914    4.29286
       O    17.05616   12.49455    3.81326
      H1    16.63268   11.64753    3.74571
       H    14.03936    4.76157    3.02724
       O    14.43196    4.43049    2.21929
      H1    14.68222    3.50501    2.24475
       H    15.54512    3.40337    8.24049
       O    15.30059    3.98005    7.50424
      H1    15.14613    4.89412    7.78280
       H    13.59507    8.92743    2.55725
       O    13.33721    8.09194    2.08698
      H1    13.66471    8.05156    1.21558
       H     8.81162    9.78786    3.84554
       O     9.56329    9.80746    3.17271
      H1     9.57489   10.72027    2.93846
       H    18.04945   10.97912   -2.30680
       O    17.44514   10.71357   -3.01106
      H1    16.66858   10.31674   -2.62709
       H    17.70909   12.86937    1.78166
       O    17.80952   13.33684    0.93966
      H1    16.97071   13.26487    0.46451
       H    19.73337    7.90497    8.58170
       O    19.52478    6.96316    8.40261
      H1    19.01534    6.98048    7.64274
       H    14.35936    3.03852    4.86420
       O    15.23640    2.69785    4.91783
      H1    15.59794    3.03271    5.70647
       H    13.11420   11.88921    9.06052
       O    12.14950   11.93618    9.28444
      H1    11.94169   12.82004    9.66596
       H    12.48769    2.48763    5.47336
       O    12.00711    3.25184    5.86228
      H1    11.06592    2.85602    5.93252
       H     9.61400    7.78374    5.88757
       O     8.87844    7.17684    5.73092
      H1     9.29231    6.37235    5.52062
       H    15.32674   10.32534   10.26011
       O    15.29749    9.95076   11.20095
      H1    15.18668    9.02614   11.20636
       H    17.11609    2.78564    1.41019
       O    17.55957    3.56975    1.06656
      H1    18.43123    3.24035    0.80778
       H    10.02453    9.75312    0.87640
       O     9.76207    9.84640   -0.06921
      H1     9.54106    8.96196   -0.37758
       H    12.61894    7.96132    7.07926
       O    12.84747    8.13721    6.14849
      H1    12.12570    8.67668    5.81429
       H    14.78660    1.03453   -0.05933
       O    14.51538    1.68209   -0.76772
      H1    15.10787    2.40990   -0.55577
       H    15.49558    1.95568    3.26280
       O    15.67138    1.82486    2.33727
      H1    15.65845    0.91654    2.01558
       H    19.43753    2.37611    9.21697
       O    19.77334    3.15005    8.67176
      H1    19.13673    3.08405    7.89633
       H    17.66440    9.67343    2.79121
       O    16.70668    9.58412    3.01980
      H1    16.70020    8.95681    3.79927
       H    19.40714   10.15234   -0.32663
       O    19.44086    9.25354    0.03338
      H1    18.72363    8.72254   -0.21758
       H    10.97622    5.21668    3.48465
       O    10.79319    4.27474    3.41888
      H1    11.18369    3.90691    4.23269
       H    17.95944   11.76564    5.67903
       O    17.54491   11.41068    6.48493
      H1    18.21931   10.84484    6.85330
       H    16.45672    1.21128    9.31269
       O    16.00595    2.03850    9.17535
      H1    15.10997    1.76001    8.94350
       H    15.28528    7.61603    5.62346
       O    16.09592    7.77861    5.14880
      H1    15.93093    7.34821    4.33320
       H    10.25455   10.22286    6.57153
       O    10.35935    9.50947    5.91212
      H1    10.24256    9.95920    5.04250
       H    18.50352    0.19385    6.92978
       O    17.90754    0.93408    7.15861
      H1    18.06515    1.68238    6.58137
       H    10.57578   13.46869    4.98129
       O    10.65066   12.56331    4.59470
      H1    11.37641   12.58389    3.97450
       H    12.07374    3.12060    0.99009
       O    11.61409    2.55642    1.64112
      H1    11.29309    3.17062    2.31922
       H    17.55924   12.02846    9.54618
       O    17.18445   12.73448    9.01980
      H1    17.34872   12.39029    8.10853
       H    13.91372   -1.37254    3.84965
       O    14.18626   -0.46109    3.72715
      H1    13.35107    0.04652    3.65280
       H    13.63342    6.99938    3.35349
       O    13.81343    6.40137    4.13627
      H1    13.32090    6.86867    4.82327
       H    15.65552   15.18833    5.20651
       O    15.47004   14.25911    5.27829
      H1    15.96698   13.90229    6.08209
       H    16.37110    4.16078   -0.35278
       O    15.78579    4.12146   -1.13591
      H1    16.26746    3.84489   -1.91487
       H    19.96511   12.18903   -1.37162
       O    19.30360   11.63492   -0.97667
      H1    18.81742   12.31971   -0.41357
       H    18.39634    4.64708   -2.03657
       O    18.81153    5.42732   -1.78184
      H1    18.69614    6.12195   -2.42290
       H    15.63861   11.86915    8.84664
       O    14.99862   11.19645    8.78551
      H1    15.01106   11.03070    7.87483
       H    14.64198    9.62745    6.27275
       O    14.66903   10.57249    6.09489
      H1    15.63120   10.61514    6.04886
       H    11.83883    6.86735    9.25964
       O    12.17959    6.62334    8.38199
      H1    11.38347    6.85848    7.85675
       H    15.96923    5.35458    2.53151
       O    16.68043    6.02669    2.74956
      H1    17.20147    5.48832    3.35717
       H    12.05113    3.48338    8.16886
       O    11.58338    3.06234    8.88898
      H1    10.64134    2.92656    8.80836
       H    18.16938    9.15325   -2.86251
       O    18.46187    8.19815   -2.86097
      H1    17.96184    7.77509   -3.55453
       H    16.57153    0.36055    6.24707
       O    15.94155   -0.18788    5.79333
      H1    15.57630    0.33489    5.04334
       H    10.09596    7.97250    2.56187
       O    10.64909    7.17644    2.71751
      H1    11.11177    7.07177    1.86279
       H    18.78812   10.40404   10.42469
       O    18.06244   10.95573   10.84093
      H1    17.38651   10.31235   11.03563
       H    19.01578   15.00542    5.36231
       O    18.29985   14.95127    4.67167
      H1    18.14632   14.01268    4.44020
       H    12.04104   12.45102    1.65787
       O    11.68525   12.20950    0.75945
      H1    12.08220   12.89129    0.16439
       H    15.86730    7.76301    0.12249
       O    14.93813    7.61305   -0.13204
      H1    14.94864    6.89178   -0.74543
       H    13.78189    9.81612   -2.01935
       O    14.68886    9.54235   -1.92150
      H1    14.73183    8.87672   -1.22716
       H    14.64158   13.13685   -0.45019
       O    15.54504   12.73033   -0.55335
      H1    15.47361   11.82285   -0.84469
       H    14.00088    6.25544    7.90330
       O    14.92794    6.51464    7.93605
      H1    15.10660    6.62504    8.89520
       H    15.00486   10.34255    2.71781
       O    14.13618   10.56692    3.11706
      H1    14.22572   10.55352    4.08818
       H    13.47407   13.89182    3.45263
       O    13.03825   13.06074    3.14901
      H1    13.63075   12.28576    3.17119
       H    13.21440    3.53961   -0.45228
       O    12.82766    4.22586    0.10098
      H1    13.43186    4.46778    0.83313
       H     8.22304    5.02339    0.85053
       O     8.62215    5.74642    1.35285
      H1     9.47183    5.41404    1.69534
       H    17.44212    6.77004    1.19182
       O    17.58147    7.19680    0.28182
      H1    17.61238    6.43307   -0.25179

