180
frame 3 | Written by MDAnalysis XYZWriter (release 2.4.3)
       H    11.43424  -12.02085   -3.96500
       O    10.95027  -12.59969   -4.52294
      H1    10.58327  -12.01477   -5.20944
       H     6.45687   -4.32128   -4.47177
       O     6.34349   -5.30126   -4.44302
      H1     5.47209   -5.40268   -4.89884
       H    12.02168  -13.53658   -2.57948
       O    11.83906  -14.45199   -2.33310
      H1    12.00296  -14.88660   -3.21598
       H     8.51616   -9.12821   -2.14329
       O     8.15760   -9.16065   -1.22138
      H1     7.20610   -9.35440   -1.26785
       H     5.79162  -13.77736   -3.82835
       O     4.89447  -13.78736   -3.45887
      H1     4.62960  -12.93427   -3.97411
       H    12.85066   -8.37607   -7.58188
       O    13.57876   -8.28394   -8.16337
      H1    14.32400   -7.84879   -7.65867
       H     0.99389  -12.59197   -4.59885
       O     1.52791  -12.88904   -3.82411
      H1     1.01862  -13.58902   -3.39740
       H    12.93814  -10.84763   -9.29469
       O    13.51481  -11.04382   -8.52585
      H1    13.67142  -10.14567   -8.11698
       H     9.78944   -4.99221   -4.80739
       O     9.28682   -5.81054   -4.61614
      H1     8.39137   -5.42413   -4.51573
       H    12.74204  -12.23308    0.05270
       O    12.39493  -11.40876   -0.20298
      H1    11.49961  -11.63732   -0.44251
       H    13.39502   -9.24960   -3.69541
       O    13.93108   -9.27969   -2.88393
      H1    13.39345   -9.87080   -2.34737
       H    11.62881   -7.23335   -0.36789
       O    12.02101   -7.47752   -1.19959
      H1    12.87390   -7.82751   -0.87212
       H     9.20555  -15.01895   -4.61415
       O    10.04476  -15.09636   -5.06032
      H1    10.41271  -14.18599   -4.85996
       H     8.12739  -14.91233   -7.33252
       O     9.05553  -15.23568   -7.52251
      H1     9.45377  -15.30718   -6.60031
       H     8.12836  -11.35143   -6.59380
       O     7.18991  -11.65073   -6.53425
      H1     6.78668  -10.93628   -7.05380
       H    10.89605   -9.53721  -10.54087
       O    11.47950  -10.28723  -10.62421
      H1    11.13510  -10.85096  -11.35386
       H     3.76036  -12.93531   -9.14495
       O     4.13587  -12.94664   -8.29804
      H1     4.88841  -13.50639   -8.38867
       H     8.45722   -5.18353   -6.83111
       O     8.48094   -4.57283   -7.55024
      H1     9.26432   -3.99759   -7.36330
       H     3.34426   -8.12785   -6.85903
       O     3.07111   -8.19137   -7.76890
      H1     3.65880   -8.94885   -8.04437
       H     6.74688  -16.04097   -3.28271
       O     7.09915  -15.52611   -4.06685
      H1     6.46955  -15.89538   -4.70917
       H     9.90252   -6.99296   -1.15041
       O     9.48929   -6.57952   -0.40145
      H1     8.56317   -6.90412   -0.52076
       H     5.60087   -7.34919   -5.76897
       O     4.81181   -7.86063   -5.74596
      H1     4.83466   -8.42608   -5.00117
       H     5.69914  -17.83365   -1.79022
       O     5.51632  -16.96248   -2.20185
      H1     4.87534  -16.53801   -1.58355
       H     6.56505   -6.65567    0.74964
       O     6.39137   -6.15833   -0.08577
      H1     6.01244   -5.32577    0.20564
       H     2.94913  -14.08598   -7.69684
       O     2.36849  -14.62825   -7.09516
      H1     1.68007  -14.01348   -6.82254
       H    10.04637  -11.36763   -7.25291
       O     9.83401  -10.95406   -6.37481
      H1    10.04285   -9.97812   -6.42843
       H    13.71338  -12.37988   -3.02431
       O    12.94262  -11.81151   -2.79501
      H1    13.06202  -11.62082   -1.82049
       H     1.24419   -7.75850   -3.00839
       O     2.05391   -7.49503   -3.40851
      H1     2.69381   -8.13996   -3.13285
       H     5.84393   -6.12073   -3.02526
       O     5.20371   -6.53700   -2.37167
      H1     5.68532   -6.36830   -1.54679
       H     6.67986  -13.67484   -6.97712
       O     6.47389  -14.30079   -7.62782
      H1     6.06233  -14.98697   -7.14548
       H    11.30728  -17.37861   -8.79937
       O    10.77783  -16.75214   -9.34039
      H1    10.32581  -16.38198   -8.60514
       H    -0.28559   -9.24358   -6.37226
       O    -0.42057   -9.61373   -5.49174
      H1     0.45370   -9.45863   -5.11104
       H    10.37884   -6.58315   -9.03564
       O     9.45388   -6.69005   -8.74050
      H1     9.21444   -5.80156   -8.44928
       H    10.95904   -6.73587   -3.86334
       O    11.76165   -7.15696   -4.19203
      H1    12.19120   -7.42573   -3.32019
       H     8.95391   -8.11630   -9.64127
       O     8.90981   -8.82476  -10.32504
      H1     8.24691   -8.57887  -10.95923
       H     1.45587   -8.72062   -8.17912
       O     0.52478   -8.99658   -8.06264
      H1     0.45233   -9.77487   -8.60249
       H     3.84970  -12.55109   -5.78799
       O     3.94969  -11.66740   -5.36162
      H1     3.08447  -11.47175   -4.94500
       H     3.55257  -14.78093   -3.94824
       O     2.99271  -15.47376   -4.35814
      H1     2.54611  -14.92415   -5.01662
       H     9.90984  -10.08069   -3.19712
       O     9.40700   -9.30274   -3.49334
      H1     8.59483   -9.69656   -3.78000
       H    10.17266   -7.81314   -7.29483
       O    10.84360   -8.43533   -6.99130
      H1    11.11221   -8.08896   -6.12574
       H    10.06358  -14.18731   -2.10009
       O     9.23875  -13.99120   -1.68403
      H1     8.65115  -14.68998   -1.90733
       H    11.08060  -13.16788   -8.41165
       O    10.13220  -12.95562   -8.52156
      H1     9.75925  -13.76359   -8.05898
       H     2.10566   -7.11774   -0.92681
       O     2.84535   -6.55521   -0.78106
      H1     3.27288   -6.48689   -1.63289
       H     9.44987  -10.85619   -1.26321
       O    10.02343  -11.53284   -1.60618
      H1     9.40857  -12.27468   -1.84018
       H     3.81681   -6.21513   -8.40559
       O     4.28914   -5.41355   -8.70442
      H1     3.59155   -4.72888   -8.73443
       H     4.82507   -8.43199   -2.44117
       O     4.50263   -9.14376   -3.02551
      H1     4.01978   -9.74324   -2.39607
       H     5.23699   -6.74266  -10.11388
       O     5.87394   -7.46508  -10.33365
      H1     5.49486   -8.08447  -10.97328
       H     6.50733   -9.38402    1.01051
       O     6.18482  -10.23714    0.68022
      H1     5.40534   -9.91063    0.26041
       H     9.41366  -13.61907    1.63738
       O    10.07010  -13.99730    0.99045
      H1     9.57598  -13.90985    0.13347
       H    13.18114  -12.67713   -7.97588
       O    12.90782  -13.63683   -7.83397
      H1    13.20356  -13.62069   -6.93176
       H     6.13643  -10.55394   -4.22000
       O     7.04768  -10.88013   -4.08742
      H1     7.07252  -11.18814   -5.04645
       H     3.90472  -10.62264  -10.01073
       O     3.19826  -10.59421   -9.36554
      H1     3.52888  -11.11374   -8.64901
       H     3.47866  -12.19116   -1.98875
       O     3.02021  -11.36755   -1.70504
      H1     2.11661  -11.60701   -2.01042
       H     4.89298  -17.28461   -6.25531
       O     5.11657  -16.36270   -5.97418
      H1     4.26213  -16.01899   -5.56131
       H     6.92834  -13.28821  -10.50514
       O     6.55928  -14.18304  -10.38407
      H1     6.55451  -14.27445   -9.45254
       H     7.50430   -9.19877   -9.16136
       O     6.79247   -9.34747   -8.48849
      H1     6.12312   -8.71583   -8.76248
       H     7.55627   -8.15109   -7.22856
       O     7.50433   -7.37700   -6.62344
      H1     8.25424   -7.61333   -6.05827
       H    10.08768  -12.94380  -10.35212
       O    10.05448  -13.10295  -11.26560
      H1    10.45030  -13.99860  -11.32064
       H     8.42885  -12.04725  -11.01124
       O     7.50451  -11.74447  -11.09069
      H1     7.54841  -10.98070  -10.52586
       H     4.57452  -11.48884  -11.87830
       O     4.89150  -10.65877  -11.53218
      H1     5.86681  -10.78679  -11.64713

