180
frame 1 | Written by MDAnalysis XYZWriter (release 2.4.3)
       H   -11.51582  -19.12224   -8.15629
       O   -11.87379  -18.99909   -9.05074
      H1   -11.64219  -19.89615   -9.38488
       H   -13.45837  -18.13340   -6.24218
       O   -13.95981  -17.42693   -5.70591
      H1   -13.29452  -17.13243   -4.99235
       H    -6.18196  -15.05030   -2.22056
       O    -5.41657  -15.36010   -2.78929
      H1    -4.75012  -14.79249   -2.44222
       H   -12.69587   -8.69956   -1.78806
       O   -12.43216   -9.30505   -2.52100
      H1   -11.48194   -9.26536   -2.45427
       H   -14.59620  -13.12053   -8.57003
       O   -15.45025  -13.09797   -8.09689
      H1   -15.45185  -14.08046   -7.95800
       H    -6.05562  -13.92720    0.35657
       O    -6.18428  -13.05537   -0.09396
      H1    -6.21827  -12.47787    0.63178
       H   -10.16961  -14.65967    0.78805
       O   -10.21790  -13.71330    0.57495
      H1    -9.50018  -13.14217    0.89395
       H   -10.34255  -16.09130    4.42347
       O    -9.72535  -15.35195    4.27496
      H1   -10.21950  -14.70123    3.77062
       H    -8.34466  -10.97142   -2.11887
       O    -8.46868  -11.83429   -1.71189
      H1    -7.68361  -11.90058   -1.18922
       H   -12.75671  -12.46270   -8.93167
       O   -12.99182  -13.39583   -9.20693
      H1   -12.28593  -13.94264   -8.81470
       H   -11.33722  -13.54866   -3.40380
       O   -11.53977  -14.18141   -4.05402
      H1   -10.79206  -14.80158   -3.95701
       H    -7.88964  -14.29613   -0.71180
       O    -8.01154  -15.09929   -1.26532
      H1    -8.35062  -15.69595   -0.54669
       H    -4.84581  -17.78284   -1.29661
       O    -4.80199  -18.65903   -1.77992
      H1    -5.56250  -18.47750   -2.43700
       H   -10.67603  -17.60822   -9.75484
       O    -9.78685  -17.19543   -9.84742
      H1    -9.96592  -16.26077   -9.46319
       H   -15.04449  -18.53985    3.45603
       O   -14.18323  -18.87122    3.82357
      H1   -14.38711  -19.23584    4.69595
       H   -16.24504  -12.43590   -1.21654
       O   -16.54893  -13.07010   -0.53475
      H1   -17.49609  -12.94329   -0.60734
       H   -12.89842  -10.96985   -1.20763
       O   -13.48986  -11.03020   -0.42363
      H1   -13.62841  -11.99784   -0.37594
       H    -9.23723   -9.65039   -8.45029
       O    -9.74987   -9.92036   -7.67925
      H1    -9.17426  -10.69083   -7.42304
       H    -6.54356  -14.14025   -8.40599
       O    -7.41142  -13.86692   -8.73554
      H1    -7.43909  -12.96583   -8.41756
       H    -7.58391  -12.65415   -4.73288
       O    -6.87636  -12.12129   -5.08934
      H1    -7.16082  -11.20208   -4.90306
       H   -12.47870  -16.22054    3.65034
       O   -12.20743  -16.52991    4.52791
      H1   -12.46811  -17.48383    4.45002
       H    -8.49947  -14.24247   -7.34098
       O    -9.26480  -14.44471   -6.81244
      H1    -9.66912  -13.60827   -6.59356
       H   -19.31324  -13.61224   -4.19032
       O   -19.06405  -12.79644   -3.65097
      H1   -18.72139  -12.25339   -4.37351
       H    -7.76061  -18.22921   -3.13635
       O    -6.88769  -18.61625   -3.45972
      H1    -6.78319  -18.07801   -4.28797
       H    -8.46449  -15.04048   -3.21034
       O    -9.17157  -15.36832   -3.80971
      H1    -8.83346  -14.91581   -4.61261
       H   -12.81463  -10.93699   -7.46332
       O   -12.21602  -10.97582   -8.25596
      H1   -11.37091  -10.53367   -8.08078
       H   -18.60954  -15.01800   -6.37851
       O   -17.85365  -14.52107   -6.69545
      H1   -17.16897  -15.17763   -6.71253
       H   -14.13534  -14.22715    0.15122
       O   -13.86116  -13.77822   -0.68527
      H1   -14.81020  -13.54667   -0.85920
       H   -11.15725  -12.86087   -5.51299
       O   -10.48708  -12.29917   -5.92512
      H1   -11.02118  -11.87034   -6.58018
       H   -17.57391  -17.84348   -2.15576
       O   -17.99736  -17.83192   -3.03711
      H1   -17.93790  -18.72466   -3.34835
       H   -17.49384  -11.26002    1.66862
       O   -16.65179  -10.91708    1.30460
      H1   -16.37790  -11.65230    0.76220
       H    -8.68332  -17.94058   -8.95156
       O    -7.97749  -18.53283   -8.63266
      H1    -7.37791  -18.47194   -9.43404
       H   -11.63780  -12.78561   -1.12656
       O   -11.55560  -12.21376   -1.88696
      H1   -10.62703  -11.93229   -1.86425
       H    -6.88586  -18.18055    2.38120
       O    -7.56631  -17.52279    2.52297
      H1    -8.19562  -17.97576    3.11986
       H   -14.50005  -14.49087    3.57410
       O   -14.86621  -15.20206    4.13013
      H1   -15.16034  -14.65127    4.83636
       H   -18.63588  -17.27689   -8.64782
       O   -18.14874  -18.12945   -8.59507
      H1   -17.65133  -17.95064   -7.77018
       H   -15.74715  -15.05979   -3.21576
       O   -15.18869  -15.72584   -2.76702
      H1   -14.52131  -15.22424   -2.25727
       H   -15.89961  -16.64264   -1.55949
       O   -16.40695  -17.07109   -0.83263
      H1   -16.96292  -16.29680   -0.61414
       H   -11.50519  -10.13476    0.37803
       O   -11.33004   -9.18495    0.31080
      H1   -10.43534   -9.15282    0.68584
       H   -14.87932  -17.50056   -0.22288
       O   -13.90616  -17.85499   -0.30458
      H1   -13.86259  -18.18764   -1.28936
       H   -12.58157  -17.11010    1.20849
       O   -11.72543  -17.11002    1.75865
      H1   -11.57973  -17.98048    2.03017
       H   -10.33582  -16.67781    1.09328
       O    -9.50199  -16.61527    0.57354
      H1    -8.87781  -17.04397    1.22442
       H    -4.09915  -18.89017   -5.18924
       O    -4.43139  -18.33451   -5.96478
      H1    -5.45281  -18.26828   -5.83892
       H   -14.71582  -16.70457  -11.66865
       O   -13.76636  -16.81231  -11.74592
      H1   -13.64072  -17.37294  -10.98601
       H   -18.76738  -14.69326    0.17680
       O   -18.56336  -15.59708    0.10187
      H1   -18.83360  -15.98728    0.91978
       H   -13.42279  -18.32057   -3.33581
       O   -13.73642  -19.06614   -2.81253
      H1   -14.63702  -19.22970   -3.17813
       H   -15.65477  -12.29630   -3.35020
       O   -15.27074  -11.63304   -2.76078
      H1   -14.37188  -11.62599   -3.10880
       H   -14.83909  -10.52598   -6.44021
       O   -14.09293  -10.84439   -5.97580
      H1   -14.14754  -10.16465   -5.24835
       H    -7.26733  -17.93759   -7.18759
       O    -7.07309  -17.73218   -6.28179
      H1    -7.21730  -16.79441   -6.18594
       H   -17.03982  -17.52058   -9.92475
       O   -16.39165  -16.88830  -10.29297
      H1   -16.98813  -16.21583  -10.74600
       H   -12.25880  -14.09013    1.46788
       O   -13.04446  -14.21967    2.00816
      H1   -13.15559  -13.29951    2.40924
       H   -14.80343  -16.27654   -7.32141
       O   -15.50799  -15.88546   -7.82907
      H1   -15.56035  -16.47922   -8.57988
       H   -15.50857   -9.96407   -3.51882
       O   -15.42629   -9.19665   -4.06581
      H1   -15.92550   -9.38621   -4.82527
       H   -16.91275  -17.83890   -4.66523
       O   -16.82283  -17.42916   -5.51820
      H1   -15.86295  -17.22898   -5.55813
       H   -10.49651  -14.99567   -7.93361
       O   -10.89011  -15.09045   -8.82761
      H1   -10.29125  -14.47634   -9.27992
       H    -5.67687  -15.12811   -6.06134
       O    -6.46282  -15.27124   -5.48598
      H1    -6.05627  -15.10030   -4.62909
       H   -12.02680  -15.83726   -3.76262
       O   -12.24101  -16.75600   -3.54669
      H1   -11.40055  -17.18612   -3.28561
       H   -16.43590  -13.96207   -5.49404
       O   -15.85845  -13.56082   -4.81962
      H1   -15.37210  -12.98477   -5.41557
       H    -9.00307  -19.81932   -5.19089
       O    -9.51579  -18.99474   -5.24681
      H1    -8.90454  -18.46582   -5.71413
       H    -9.55936  -18.48756   -3.61904
       O    -9.51271  -18.11833   -2.73109
      H1    -9.23224  -17.23027   -2.92200

