180
frame 11 | Written by MDAnalysis XYZWriter (release 2.4.3)
       H    -9.53335    9.91845  -11.28978
       O   -10.31806   10.41180  -11.59760
      H1   -10.06517   10.61963  -12.51708
       H    -4.14872   17.97159  -13.01372
       O    -4.70552   18.60698  -13.42276
      H1    -4.16886   18.97737  -14.15504
       H    -4.51847   13.61324  -15.32711
       O    -3.57436   13.45981  -15.29994
      H1    -3.67321   12.56433  -14.85381
       H   -18.97222   19.38661  -16.54942
       O   -18.60852   19.49265  -17.46261
      H1   -18.74227   18.60961  -17.81212
       H   -10.30359   18.94184  -18.00014
       O   -10.42312   19.38380  -18.81098
      H1   -10.62286   18.68906  -19.44555
       H   -17.64806   16.69250  -19.31111
       O   -18.26204   17.46782  -19.12184
      H1   -19.05412   17.30720  -19.68453
       H   -10.29293   12.95552  -15.62953
       O   -10.67176   12.56257  -16.42480
      H1   -11.56802   12.84251  -16.27438
       H   -15.16362   15.22843  -12.55843
       O   -14.76045   15.51339  -11.72392
      H1   -14.92718   16.52935  -11.78239
       H    -6.14011   17.56769  -18.50434
       O    -6.29367   17.27942  -17.57866
      H1    -6.82520   18.00059  -17.23064
       H   -13.07595   12.33613  -11.23624
       O   -12.52267   12.86298  -10.64151
      H1   -12.04929   13.44023  -11.24787
       H   -15.70806   18.48469   -9.97692
       O   -14.87541   18.01295  -10.09070
      H1   -15.08781   17.08324   -9.76772
       H   -13.09894   18.33862  -10.77382
       O   -12.10246   18.31422  -10.85884
      H1   -11.90230   18.76549  -11.70571
       H    -1.62238   18.58104  -17.06201
       O    -2.57602   18.46968  -16.99459
      H1    -2.74854   17.56264  -16.65913
       H    -5.49738   15.71785  -13.22205
       O    -5.41312   15.25103  -12.43424
      H1    -6.04922   15.59975  -11.76455
       H   -10.82888    7.29221  -15.86932
       O   -10.17435    7.71817  -15.24709
      H1   -10.21751    8.70051  -15.38338
       H    -7.17571   11.06751  -11.31513
       O    -7.17277   11.78473  -11.94705
      H1    -6.45776   12.37920  -11.61036
       H    -4.95288    8.75424  -16.68455
       O    -5.16299    8.80414  -15.73074
      H1    -5.58728    9.65667  -15.59018
       H   -13.93405   19.69326  -13.06785
       O   -14.21316   18.75343  -12.94938
      H1   -13.95937   18.28246  -13.77508
       H    -8.86244   10.82673  -14.46464
       O    -9.77979   10.52134  -14.35491
      H1   -10.17998   11.25301  -14.84811
       H   -11.02275    8.93729  -17.58589
       O   -11.62272    9.50453  -17.06310
      H1   -11.08680   10.34045  -16.92533
       H    -4.93894   12.31996  -17.58584
       O    -5.83993   12.68701  -17.56349
      H1    -6.34057   11.99479  -18.01092
       H   -15.56284   11.24932  -15.05812
       O   -16.15789   11.93962  -15.36753
      H1   -16.94817   11.73758  -14.86240
       H   -14.99870   15.42800  -16.74816
       O   -14.96542   14.59610  -17.19668
      H1   -14.27897   14.14620  -16.63964
       H   -10.29903    7.96308  -19.30769
       O    -9.85851    8.58553  -18.73307
      H1    -9.06761    8.11882  -18.47036
       H   -17.23293   18.51263  -13.46900
       O   -16.67975   18.96129  -14.04668
      H1   -15.82791   18.92842  -13.56552
       H    -8.48915   14.19695  -10.90424
       O    -9.12635   13.62809  -11.31936
      H1    -8.53042   12.84944  -11.42871
       H    -8.39474   18.94301  -15.50581
       O    -8.26535   18.22597  -16.15873
      H1    -8.30420   17.44948  -15.58193
       H    -8.72405   17.21774   -7.59778
       O    -8.77867   16.41786   -8.06360
      H1    -9.52030   16.59631   -8.68128
       H    -9.06366   14.34886  -13.92549
       O    -9.19492   13.80861  -14.69040
      H1    -8.37183   14.01356  -15.14107
       H   -14.18760   17.35274  -15.67047
       O   -13.37434   17.09271  -15.12710
      H1   -12.78847   17.33714  -15.86282
       H   -10.72166   17.88223  -16.06304
       O   -11.29754   17.60222  -16.78426
      H1   -11.02241   16.69616  -16.98952
       H    -0.04258   15.86641  -17.96382
       O    -0.52227   15.45317  -18.68402
      H1     0.14892   14.81662  -18.92896
       H    -7.98884   15.92492   -9.71759
       O    -7.38508   15.81315  -10.43914
      H1    -7.90563   16.16217  -11.20614
       H    -6.36322   14.91565  -15.47067
       O    -6.45743   13.96162  -15.30720
      H1    -6.38233   13.56176  -16.20449
       H   -19.30053   15.16068  -14.27828
       O   -18.55769   15.34327  -13.66770
      H1   -18.59324   14.49939  -13.18344
       H   -11.88017   15.33505  -13.18077
       O   -12.57335   14.69495  -12.90603
      H1   -13.16380   15.27738  -12.41394
       H   -13.30305   12.69521  -15.16789
       O   -13.09221   13.56220  -15.56230
      H1   -13.26791   14.06385  -14.71566
       H   -13.18970   10.34096  -14.36093
       O   -13.40273   10.87711  -15.11303
      H1   -13.09278   10.31595  -15.83996
       H    -2.62646   16.39864  -13.07432
       O    -2.71456   17.07205  -12.35072
      H1    -3.02312   16.55649  -11.51727
       H   -11.18129   15.66238   -9.46644
       O   -10.62410   16.37688   -9.93103
      H1   -11.31974   17.01653  -10.13882
       H    -3.83757   14.07086  -12.05436
       O    -3.04869   13.72033  -11.65408
      H1    -3.28293   13.52581  -10.71817
       H    -5.20923   13.95319  -19.45893
       O    -4.39517   14.23780  -19.92103
      H1    -3.70829   13.79110  -19.33974
       H    -9.74281   15.14828  -17.97537
       O   -10.64535   15.34023  -18.36030
      H1   -10.51654   16.06950  -19.04632
       H   -18.99730   17.07892  -13.16195
       O   -18.79309   17.91434  -12.73375
      H1   -19.64521   18.36966  -12.68980
       H    -6.82911   10.90061  -13.61884
       O    -6.74277   10.74412  -14.58680
      H1    -6.56605   11.65421  -14.79312
       H    -7.21558    8.95608  -17.62879
       O    -7.30887    9.87787  -17.91578
      H1    -8.26579   10.06562  -17.83982
       H   -11.42784   16.24387  -14.60345
       O   -10.81665   16.47836  -13.88374
      H1   -10.98296   17.43358  -13.80255
       H   -18.23876   14.52299  -17.29120
       O   -17.70914   13.74784  -17.40935
      H1   -16.87224   13.99314  -16.94867
       H   -13.96178   14.54947  -18.56183
       O   -13.43450   14.75251  -19.36979
      H1   -12.53157   14.99218  -18.92572
       H    -8.11560   17.79722  -12.89339
       O    -8.12436   16.87120  -13.32149
      H1    -9.10634   16.73340  -13.50719
       H   -17.62052   12.05167  -17.85242
       O   -17.45796   11.10591  -17.81343
      H1   -17.01587   11.12871  -16.92701
       H   -15.20905   12.71904  -11.00377
       O   -15.26415   12.15312  -11.80017
      H1   -15.25482   12.82409  -12.52097
       H    -4.88937    9.20796  -19.32841
       O    -4.25982    8.88181  -18.66574
      H1    -3.41978    9.28127  -18.94582
       H    -5.43233   16.99073  -15.99755
       O    -5.27426   16.55968  -15.11383
      H1    -5.02033   17.29087  -14.50734
       H    -1.64921   13.72039  -17.81635
       O    -2.48456   13.31745  -17.66885
      H1    -2.61091   13.57124  -16.72713
       H   -16.69267   14.84474  -14.13043
       O   -15.79452   14.55220  -14.10323
      H1   -15.93747   13.64076  -14.39262
       H    -7.32528   15.95090  -17.72392
       O    -7.82844   15.19067  -18.15118
      H1    -7.33654   15.13718  -18.98283
       H    -2.61741   14.94293  -14.61599
       O    -1.89856   15.56865  -14.52434
      H1    -1.28780   14.97580  -14.06078
       H   -16.21289   17.91695  -15.44327
       O   -16.08709   17.33915  -16.21685
      H1   -16.17950   18.05373  -16.89263
       H   -10.75818   12.49142  -18.12699
       O   -10.85972   12.52549  -19.11548
      H1   -10.68454   13.52617  -19.27647

