180
frame 6 | Written by MDAnalysis XYZWriter (release 2.4.3)
       H   -18.32241  -15.93133    7.54359
       O   -18.99940  -15.55678    6.96199
      H1   -18.64328  -14.65635    6.85657
       H   -16.80547  -15.92979    5.77563
       O   -16.82317  -16.60736    5.04459
      H1   -17.42291  -17.22786    5.47390
       H   -17.41803   -2.38873    6.33759
       O   -17.05398   -1.59363    6.81851
      H1   -17.79437   -1.43615    7.45295
       H   -15.77079   -6.72485    1.60685
       O   -15.58133   -5.98359    2.16559
      H1   -14.97404   -6.45630    2.78308
       H   -14.43631  -10.47575   10.47433
       O   -14.27875  -10.23852    9.55792
      H1   -13.82592   -9.41419    9.70206
       H   -12.25267  -14.11018    1.23282
       O   -12.67556  -13.67044    1.97867
      H1   -11.90303  -13.19020    2.33467
       H   -13.26390  -17.67413    5.04045
       O   -13.38441  -17.40608    5.96623
      H1   -13.32524  -16.46540    5.89260
       H   -11.61933  -14.04774    7.14668
       O   -12.11539  -14.85130    7.23809
      H1   -12.97017  -14.49621    7.53860
       H   -12.64555  -10.96575   13.01479
       O   -13.20578  -10.12304   12.99813
      H1   -14.00357  -10.49247   13.41382
       H   -14.26820   -7.34154    4.99891
       O   -14.78979   -6.50849    4.87541
      H1   -15.32477   -6.50623    5.66659
       H   -16.97735   -3.47332    4.75545
       O   -17.92264   -3.48828    5.10179
      H1   -18.29073   -3.14504    4.30373
       H   -11.81837   -6.13098    7.90204
       O   -11.02356   -6.60447    8.30081
      H1   -10.36336   -5.99291    7.98517
       H   -16.42153  -13.63093    7.72041
       O   -17.35690  -13.40830    7.75365
      H1   -17.28094  -12.52966    7.28036
       H    -9.49643   -9.09385    4.95558
       O    -9.91329   -8.61369    4.23611
      H1   -10.84888   -8.64090    4.33328
       H   -19.36746   -5.79577    6.97806
       O   -19.22729   -6.71324    6.80256
      H1   -19.22889   -6.69725    5.81190
       H   -12.31239  -11.85867    9.89579
       O   -11.71934  -12.53855   10.23673
      H1   -12.18708  -13.38324   10.05712
       H   -19.16174   -3.64627    6.58346
       O   -19.05990   -3.77422    7.53005
      H1   -19.72206   -3.16583    8.01321
       H   -18.78942   -5.19703   10.12093
       O   -18.76534   -4.71188   10.96869
      H1   -18.68371   -5.44870   11.58440
       H   -17.09436  -10.13570    7.87324
       O   -17.34149  -10.63210    7.10474
      H1   -17.77834   -9.87130    6.57854
       H   -11.35112   -5.75422   11.30547
       O   -10.96119   -6.63210   11.12159
      H1   -11.03356   -6.54753   10.13166
       H   -16.02323   -9.74492    1.29734
       O   -15.47151   -8.95043    1.07295
      H1   -15.00356   -9.17405    0.23461
       H   -14.83243  -14.56439    9.13551
       O   -14.73557  -14.54745    8.18086
      H1   -14.70350  -15.52826    8.01344
       H   -19.45826   -9.18929   10.90158
       O   -18.78305   -9.88663   10.86801
      H1   -18.55791  -10.11688   11.83055
       H   -16.45770  -11.92560   11.20890
       O   -15.84964  -11.30153   11.65116
      H1   -16.39018  -11.05808   12.40886
       H   -15.16094  -17.37299    8.75268
       O   -15.26418  -17.19636    7.83708
      H1   -14.64385  -17.77631    7.39814
       H   -16.12387   -9.99523    5.72043
       O   -15.67521   -9.41876    5.15486
      H1   -15.60895   -9.94731    4.33272
       H   -17.46839   -9.15037    9.50223
       O   -16.64385   -8.98961    9.03019
      H1   -15.96320   -9.65756    9.32021
       H   -15.36861  -12.60613   -0.66561
       O   -15.41884  -12.19598   -1.59761
      H1   -16.18864  -12.63201   -1.99965
       H   -16.88103   -6.18040    7.51930
       O   -15.89272   -6.23115    7.53688
      H1   -15.69540   -5.35915    7.92123
       H   -18.87390   -7.74874   12.80687
       O   -18.22184   -7.05139   12.95778
      H1   -17.42110   -7.40174   12.50784
       H   -18.03394  -10.14226   -1.02143
       O   -18.50760  -10.97042   -1.00790
      H1   -19.13720  -10.80896   -1.71588
       H   -17.13620  -14.39668   11.03072
       O   -16.52794  -13.88774   10.45752
      H1   -17.01784  -13.72964    9.62550
       H   -10.73939  -10.93465    2.29179
       O   -11.09847  -11.46602    3.04571
      H1   -10.47612  -12.15121    3.30382
       H   -14.06820  -15.14161   11.65330
       O   -13.79770  -14.18966   11.54389
      H1   -14.56936  -13.72676   11.17646
       H   -17.49866  -11.57794    1.11369
       O   -16.81634  -11.39739    1.77317
      H1   -17.40845  -11.40662    2.57969
       H   -14.10205   -9.16455    7.30700
       O   -13.76995   -8.23513    7.41484
      H1   -14.68760   -7.81336    7.41534
       H   -18.25955   -5.41951    3.69102
       O   -18.27870   -5.38480    2.70541
      H1   -17.36060   -5.50246    2.52743
       H   -13.56601  -15.16287    2.73799
       O   -13.89652  -15.56833    3.59177
      H1   -14.37605  -14.79330    3.90440
       H   -12.24382  -11.45899    6.18110
       O   -12.47353  -12.18088    5.57251
      H1   -11.60669  -12.34945    5.15533
       H   -14.70450  -12.98207    5.45127
       O   -15.39015  -13.62276    5.14162
      H1   -15.99547  -13.00199    4.62213
       H   -12.19374   -7.68541    2.67563
       O   -12.37773   -7.18060    1.85451
      H1   -12.97418   -7.74953    1.34958
       H   -12.04880   -4.10081    6.69418
       O   -12.07811   -4.85840    6.16702
      H1   -13.00632   -4.89347    5.90568
       H   -17.81833   -7.74817   -0.84357
       O   -16.90940   -7.51745   -0.83551
      H1   -16.49651   -8.09893   -0.17854
       H   -11.67327   -5.71787    3.30457
       O   -11.36921   -4.89861    3.64591
      H1   -11.55698   -5.01578    4.58747
       H   -17.65458   -7.48172    2.78530
       O   -17.58126   -8.38898    3.14785
      H1   -16.84610   -8.43041    3.81515
       H   -17.16442  -15.96267   13.01075
       O   -17.03705  -16.04850   12.06575
      H1   -17.60867  -16.82355   11.93247
       H   -17.86975  -13.12645    3.61942
       O   -17.94046  -12.26848    4.09672
      H1   -18.78804  -12.33292    4.58835
       H   -12.39765   -9.17071    5.32334
       O   -12.60653   -8.73868    4.45181
      H1   -12.80220   -9.58438    4.03399
       H   -18.19088  -11.26174   14.04622
       O   -17.94867  -10.49153   13.48621
      H1   -17.57224   -9.91022   14.19221
       H   -13.48315  -11.38064    2.65923
       O   -14.12805  -10.71454    2.98974
      H1   -14.35473  -10.10105    2.28222
       H   -14.82512   -3.87245    4.72682
       O   -14.93123   -3.82245    3.73731
      H1   -15.11509   -4.73176    3.59788
       H   -12.08356   -9.09145    7.29565
       O   -11.69535   -9.84388    6.81308
      H1   -10.82216   -9.89577    7.30150
       H   -14.99957   -4.38096   11.59433
       O   -14.98510   -5.01513   10.81764
      H1   -14.14553   -4.61675   10.35997
       H   -15.36986   -2.61826    6.80530
       O   -14.48308   -2.70237    6.47049
      H1   -14.35111   -1.75696    6.14166
       H   -16.53116   -4.13305    9.65581
       O   -16.51995   -3.77194    8.73281
      H1   -17.35678   -4.03956    8.31582
       H   -15.25616  -16.52436    2.76249
       O   -15.94574  -17.02788    2.23463
      H1   -16.63041  -17.23831    2.90268
       H   -14.16955  -13.38362    1.37246
       O   -15.05340  -13.27187    0.84136
      H1   -15.56034  -12.75896    1.48957
       H   -17.31935  -15.31740    2.48457
       O   -17.98721  -14.65636    2.69599
      H1   -18.63088  -15.20553    3.14460
       H   -19.34571  -17.39866    3.78814
       O   -19.60144  -16.56859    4.24102
      H1   -19.33447  -16.77552    5.13230
       H   -15.47821   -6.59266   10.99135
       O   -15.91338   -7.44825   11.17076
      H1   -16.18763   -7.73125   10.30653

