180
frame 2 | Written by MDAnalysis XYZWriter (release 2.4.3)
       H     7.27617   -4.02998   -3.57050
       O     6.81604   -4.88606   -3.72238
      H1     6.03064   -4.60567   -4.23746
       H     7.01859    2.16374   -3.68449
       O     6.08004    2.34506   -3.60671
      H1     5.69555    1.49113   -3.83581
       H     5.00894    0.29170   -5.79169
       O     5.43922    0.41299   -6.65381
      H1     6.11122   -0.26826   -6.54425
       H     6.68909    3.68134   -5.89203
       O     7.03528    4.25842   -5.20123
      H1     6.59398    3.89016   -4.42481
       H    14.73788    5.93024   -8.72411
       O    15.03568    6.87291   -8.77333
      H1    15.97896    6.73179   -8.93652
       H     3.83144    2.96857  -10.03795
       O     4.39003    3.20402  -10.76812
      H1     4.39648    4.15549  -10.73243
       H    13.00364    2.52208   -6.72606
       O    12.81754    1.67041   -6.31899
      H1    13.29726    1.10378   -6.97914
       H    12.50369    6.57513   -5.93066
       O    11.93785    7.17329   -5.49300
      H1    12.56015    7.64352   -4.95333
       H     9.61184   -4.28975   -5.25453
       O     9.51836   -5.02291   -4.58902
      H1     8.57030   -5.08943   -4.52831
       H    14.54623   -1.20702  -11.24798
       O    15.02860   -0.44785  -10.96327
      H1    14.51588   -0.14067  -10.21310
       H     8.87603   -2.62499  -11.59494
       O     9.04038   -2.61200  -10.60749
      H1     8.29492   -3.24331  -10.31237
       H    13.91737   -5.01179   -9.45546
       O    13.56760   -4.10257   -9.45568
      H1    12.55501   -4.24845   -9.58185
       H     4.62192   -2.70965   -9.25901
       O     3.86874   -3.12418   -8.80011
      H1     3.98605   -2.82519   -7.89953
       H    15.74589    0.44075   -3.33261
       O    15.12423   -0.32668   -3.09593
      H1    14.22424    0.05275   -3.08725
       H    13.31445    4.78061   -2.30221
       O    13.59392    3.81506   -2.44536
      H1    12.74500    3.36053   -2.59275
       H     8.65613    4.71433   -4.63767
       O     9.42809    4.92159   -4.08311
      H1    10.04242    5.17468   -4.81109
       H    10.46286    4.72345   -7.85087
       O    10.08252    4.87375   -6.98684
      H1    10.19038    3.95050   -6.66105
       H    15.91234    4.01542   -4.73094
       O    15.33558    3.51671   -5.32635
      H1    14.60032    3.55472   -4.68962
       H    10.50652    7.34187   -4.44133
       O     9.67301    7.57997   -3.91541
      H1     9.27601    6.70343   -3.90614
       H     8.03930   -5.95427   -6.88601
       O     7.85631   -5.08304   -7.35558
      H1     8.59515   -4.51942   -7.01302
       H     7.59790   -2.15636   -5.47741
       O     7.48458   -2.02031   -6.47354
      H1     6.92555   -2.70887   -6.74558
       H     6.10993    7.70514   -6.02578
       O     6.03815    7.77531   -6.97419
      H1     6.64243    7.05911   -7.27089
       H     2.45394   -2.81378   -6.52831
       O     3.25006   -2.37388   -6.17107
      H1     3.71125   -3.16756   -5.77663
       H    10.93419    1.15281  -10.90114
       O    11.28916    1.95217  -11.29172
      H1    11.07890    2.60312  -10.56539
       H     9.57618   -1.01086  -10.46489
       O     9.81653   -0.06978  -10.25520
      H1     8.97673    0.38390  -10.43252
       H    14.96017   -0.10509   -8.06128
       O    13.97093    0.01246   -8.07799
      H1    13.72784   -0.89692   -7.87574
       H     6.55150    1.77181   -0.20589
       O     5.82793    2.13392   -0.78119
      H1     6.11579    1.98371   -1.73575
       H    14.64903    5.10552   -6.17919
       O    14.40685    6.04360   -6.06406
      H1    14.60088    6.53888   -6.85069
       H    11.67960    8.17027   -7.23606
       O    11.42380    8.91550   -7.82705
      H1    11.16043    8.41923   -8.61490
       H    10.73979    3.39155   -1.66234
       O    11.05569    3.13142   -2.54749
      H1    10.43532    3.57251   -3.09393
       H    11.48227    1.45401    0.26146
       O    10.51752    1.39032   -0.01851
      H1    10.19132    2.07582    0.56268
       H     5.31635   -0.62753   -2.99435
       O     4.94812   -0.26445   -3.81818
      H1     4.04429   -0.45310   -3.58736
       H     6.45641   -1.44155  -10.20742
       O     5.65859   -0.86049  -10.22164
      H1     5.07564   -1.37162  -10.80896
       H    16.59127    2.20493   -4.27679
       O    16.98472    1.64572   -3.57067
      H1    17.91363    1.35368   -3.83597
       H    10.95796    1.80605   -6.51241
       O    10.13278    2.20036   -6.14231
      H1     9.56526    1.44109   -6.34885
       H     9.37534   -4.93916   -1.48305
       O     9.65576   -4.00000   -1.60521
      H1    10.55211   -4.25793   -1.97426
       H    15.27096   -2.66135   -7.74713
       O    15.87973   -2.21572   -8.32161
      H1    16.34029   -3.09550   -8.66558
       H    12.97589    1.65820  -12.00733
       O    13.64808    1.24641  -12.60462
      H1    14.16569    0.66284  -11.92680
       H     7.27859    5.04085   -8.37570
       O     7.53274    5.72617   -7.78978
      H1     8.47386    5.63122   -7.58266
       H    10.40923   -3.75720   -9.21535
       O    10.96000   -4.35287   -9.74766
      H1    10.59587   -4.42083  -10.64878
       H     5.37689    2.16764   -6.92920
       O     5.49386    3.06530   -7.28866
      H1     4.74481    3.53311   -6.88468
       H     9.05055    7.07997   -9.14887
       O     9.88746    7.30756   -9.65561
      H1     9.52379    8.11314  -10.12276
       H    11.79516   -0.58874   -1.20304
       O    11.97175   -1.53340   -1.28790
      H1    12.28176   -1.49927   -2.23932
       H     7.48575   -1.91752   -0.85311
       O     7.00645   -2.72377   -0.57411
      H1     7.50775   -3.37480   -1.11552
       H     8.22719   -1.38818   -3.55426
       O     8.19153   -2.38309   -3.61723
      H1     8.98809   -2.55265   -3.18121
       H    13.68839   -1.90035   -4.12743
       O    12.89075   -2.29945   -3.74587
      H1    12.31915   -2.42722   -4.53368
       H    13.52784   -3.57703   -6.37108
       O    13.50977   -2.91355   -7.04040
      H1    13.56182   -3.45947   -7.84281
       H    10.96686   -3.11799   -6.53317
       O    10.05180   -3.47342   -6.46525
      H1     9.56173   -2.60624   -6.56926
       H     9.86355    4.57857  -12.28816
       O    10.32335    3.86537  -12.82012
      H1    10.03177    3.04642  -12.37471
       H     6.82636   -4.71723  -10.54709
       O     6.81444   -4.07019   -9.79577
      H1     7.10702   -4.57139   -9.04405
       H    12.57987    1.19237   -4.58425
       O    12.36657    0.70132   -3.75901
      H1    11.81112    1.36891   -3.39328
       H     7.37695    1.78454  -10.37631
       O     7.53023    1.02381  -10.98579
      H1     6.81226    0.42323  -10.78393
       H    15.69513   -1.55577   -4.11812
       O    16.19897   -2.18778   -4.62564
      H1    16.62425   -1.73945   -5.31125
       H    10.33074    4.83135   -9.68388
       O    11.18580    4.43140   -9.72381
      H1    11.53235    5.04312  -10.37422
       H     4.34855    0.13725   -9.34967
       O     3.47269    0.36916   -8.97748
      H1     3.67431    0.13996   -8.04084
       H     8.78299    0.87293   -2.89966
       O     8.31958    0.76851   -3.78464
      H1     8.82652    1.41479   -4.31226
       H    12.96441    3.60061   -9.09631
       O    13.46440    3.42203   -8.29496
      H1    14.30978    3.00779   -8.61624
       H     7.78338    0.01111    0.39169
       O     8.16582   -0.24655   -0.47738
      H1     9.09878   -0.13752   -0.39541
       H     6.58461    3.19738   -8.67852
       O     7.20480    3.29041   -9.43748
      H1     6.52316    3.41996  -10.14435
       H     9.88294   -0.19237   -8.26437
       O     9.65937   -0.13574   -7.31341
      H1     8.84515   -0.63156   -7.22788

