180
frame 60 | Written by MDAnalysis XYZWriter (release 2.4.3)
       H    13.58106   -3.86706    2.75395
       O    14.22914   -3.38588    2.26827
      H1    14.63506   -2.89810    3.00205
       H    18.76710   -1.25382   -2.66323
       O    18.81791   -2.12636   -2.20638
      H1    19.01885   -1.90908   -1.30112
       H    15.69266   -4.02400   -0.17370
       O    16.18851   -4.52111    0.47683
      H1    15.57518   -4.20679    1.15665
       H    16.19735   -5.51046   -3.33608
       O    15.57582   -6.16002   -3.11576
      H1    15.87479   -6.45675   -2.24646
       H    13.46674    6.42151   -7.90536
       O    14.39648    6.66409   -7.70225
      H1    15.00060    5.98271   -8.08420
       H    17.31995   -1.00589   -4.25423
       O    16.37722   -1.18927   -4.41307
      H1    16.41815   -2.13253   -4.53095
       H    12.56144    2.21440   -4.06675
       O    13.05666    1.34587   -4.04559
      H1    13.52988    1.42712   -3.14867
       H    16.07284    7.00126   -1.76948
       O    16.90385    6.75419   -2.26856
      H1    16.92828    7.43349   -2.98698
       H    17.48430    5.04834   -0.19430
       O    17.71644    5.11313    0.73051
      H1    17.16582    5.80854    1.03986
       H    13.73334   -3.19482   -5.43829
       O    13.23785   -2.35257   -5.39830
      H1    13.01513   -2.45294   -4.49550
       H    18.28350    3.15500   -6.95316
       O    19.17526    2.77715   -7.01926
      H1    19.71201    3.53961   -7.27675
       H    16.80683   -1.74596  -11.26924
       O    17.54156   -2.37543  -11.01824
      H1    17.06590   -3.18998  -10.76859
       H    18.06019   -1.37387   -9.51308
       O    18.07593   -1.39735   -8.52937
      H1    17.28173   -0.84983   -8.30568
       H    14.29669    2.95708   -2.26202
       O    14.41307    2.05334   -1.95927
      H1    14.41120    2.08144   -1.01378
       H    15.42554   -4.28120   -6.23217
       O    14.59001   -4.62736   -5.91366
      H1    14.91891   -5.51222   -5.52137
       H    10.50532    0.53186   -7.73684
       O    10.27221    1.19972   -7.03087
      H1    11.14113    1.54872   -6.80668
       H    11.82429   -1.96381   -2.34058
       O    12.13406   -2.67458   -2.93905
      H1    12.84555   -3.00238   -2.36196
       H    17.43118    0.25527    4.00431
       O    17.05022   -0.18673    4.86914
      H1    17.86296   -0.31572    5.38173
       H    18.53976   -6.51530   -7.76030
       O    18.22772   -5.59002   -7.48970
      H1    18.74400   -4.98107   -8.10201
       H    17.65198   -4.17582    3.03703
       O    17.42644   -4.41127    3.90646
      H1    16.66627   -5.00801    3.79861
       H    17.75324   -4.18348    0.88688
       O    18.61744   -4.08439    1.34783
      H1    18.96394   -3.25719    1.02868
       H    16.26712    1.85215   -6.43513
       O    16.14643    2.77395   -6.21262
      H1    15.95662    2.60356   -5.24975
       H    17.91134   -7.17237   -3.22379
       O    18.42385   -7.77331   -2.65899
      H1    19.29086   -7.75851   -3.12040
       H    15.99790   -0.19013   -6.05316
       O    15.94057    0.02462   -7.01212
      H1    14.98783    0.03711   -7.16300
       H    17.90466   -3.45777   -3.25503
       O    17.16581   -3.99216   -3.68742
      H1    17.66395   -4.57723   -4.25115
       H    14.37003    3.57683   -6.45268
       O    13.41133    3.61990   -6.61504
      H1    13.29017    4.51098   -7.08312
       H    15.03793   -4.42148   -9.06413
       O    14.08410   -4.15924   -9.05530
      H1    13.86698   -4.14635   -8.09251
       H    15.01599   -0.27380  -11.25527
       O    15.63845   -0.54858  -11.95832
      H1    16.13237    0.32292  -12.17556
       H    16.29304   -6.28695   -7.46094
       O    15.79809   -6.94461   -6.93108
      H1    14.95558   -7.00823   -7.46480
       H    17.00285   -5.21108   -9.41703
       O    16.39977   -4.85029  -10.03155
      H1    16.24219   -5.72600  -10.56489
       H    18.50227    3.62388   -2.36403
       O    17.65031    3.87784   -2.01762
      H1    17.48099    4.71986   -2.49929
       H    15.93854    1.72632   -3.20272
       O    16.72211    1.88792   -3.74696
      H1    17.10446    2.58548   -3.18333
       H    10.70872   -1.05562   -1.00824
       O    11.48395   -0.62531   -1.36806
      H1    11.33043    0.34134   -1.22801
       H    19.05594   -6.38471    1.73848
       O    19.09918   -7.20509    1.28028
      H1    19.76541   -7.67828    1.87929
       H    13.80057    5.65077   -1.67371
       O    14.00564    5.05307   -2.45927
      H1    14.30401    5.65591   -3.13157
       H    12.17977   -4.74490   -5.94550
       O    11.83237   -4.56315   -6.83510
      H1    11.26589   -5.30684   -6.97815
       H    19.22820    3.43527    1.79266
       O    19.54951    2.68160    2.30248
      H1    19.61731    3.10214    3.18032
       H    20.18653   -1.08439    0.26391
       O    19.43016   -1.66343    0.43956
      H1    18.90888   -1.11682    1.02775
       H    12.55782    3.99418   -4.99810
       O    12.15665    3.95448   -4.12067
      H1    12.76735    4.55956   -3.56667
       H    17.19549    0.27224    1.91607
       O    18.09830    0.26625    2.30486
      H1    18.38629    1.20370    2.12407
       H    14.87332   -3.76555   -2.01261
       O    14.41638   -3.40142   -1.19326
      H1    14.13405   -4.30074   -0.91737
       H    10.27109    0.02792   -5.40663
       O     9.88093    0.08856   -4.50009
      H1    10.46754   -0.36015   -3.91943
       H    13.56129    1.12862   -8.56675
       O    13.95770    0.89376   -9.46422
      H1    13.22510    0.97277  -10.07323
       H    19.43880    5.64406   -9.98742
       O    19.24819    6.42222   -9.52598
      H1    19.82641    7.10795   -9.98701
       H    11.66655   -1.73222   -6.58298
       O    11.01201   -2.05438   -7.27234
      H1    11.34379   -3.00877   -7.25881
       H    17.60014   -4.05289   -6.46284
       O    16.94246   -3.34711   -6.40973
      H1    17.16538   -2.77549   -7.17563
       H    16.43977    2.75497   -9.85688
       O    15.59675    3.24100   -9.54309
      H1    15.16511    2.45713   -9.20916
       H    18.63603    2.75808  -10.42024
       O    17.88852    2.17313  -10.28278
      H1    18.19691    1.31991  -10.66161
       H    17.37762    5.83042   -8.84630
       O    16.77641    5.32663   -8.32885
      H1    16.55218    4.59270   -8.95460
       H    14.59106    6.84199   -5.72286
       O    14.72660    6.62438   -4.80156
      H1    14.97666    7.51240   -4.52371
       H    12.80193    3.08121    1.39813
       O    13.29541    3.93293    1.31952
      H1    13.97739    3.84848    1.96304
       H    13.37719    0.49111   -5.70980
       O    13.31175    0.20995   -6.67013
      H1    13.28289   -0.74096   -6.59506
       H    18.99161   -5.66824   -5.81649
       O    18.74209   -5.84890   -4.90428
      H1    19.61651   -5.91469   -4.38334
       H    14.87414    0.69390    2.48352
       O    15.42925    0.49646    1.65076
      H1    14.75932   -0.02229    1.15565
       H    15.38269    5.05009    2.78517
       O    15.92771    4.22806    3.04124
      H1    16.60176    4.09513    2.40295
       H    17.71568    4.49785   -5.15939
       O    17.89349    5.15193   -5.81058
      H1    17.25226    4.98308   -6.50553
       H    17.81573    6.75264   -4.70339
       O    18.04157    7.67274   -4.70923
      H1    18.13306    7.91045   -5.63970
       H    15.55807   -8.00191   -0.07575
       O    15.62398   -7.18110   -0.52500
      H1    16.04174   -6.54008    0.10877
       H    13.34316   -1.82353    0.91728
       O    12.92265   -0.95905    1.00058
      H1    12.45890   -0.83078    0.15297
       H    18.27476    0.72566   -3.92940
       O    19.05297    0.08848   -3.76914
      H1    19.34311   -0.10082   -4.64177

