180
frame 7 | Written by MDAnalysis XYZWriter (release 2.4.3)
       H    13.56145  -18.54668   -3.95981
       O    13.16136  -18.14389   -4.73876
      H1    13.17710  -18.83141   -5.42765
       H    11.67736  -13.84029   -4.18580
       O    10.73325  -13.75841   -4.34225
      H1    10.71619  -12.90807   -4.87813
       H    12.42527  -11.58630  -13.97475
       O    12.03955  -11.35921  -14.84456
      H1    12.78694  -11.46534  -15.46041
       H     7.68194  -18.67153  -10.80867
       O     6.90563  -18.43224  -11.42272
      H1     7.33306  -18.51000  -12.30267
       H    12.90096  -15.12522   -9.86392
       O    12.09411  -15.28097  -10.32153
      H1    12.22777  -16.13332  -10.80033
       H    13.00949  -11.37119   -6.93970
       O    12.85732  -12.31664   -6.99292
      H1    13.22223  -12.73237   -6.19553
       H     3.97154  -18.24786  -15.93836
       O     4.27666  -18.60814  -15.10566
      H1     5.13985  -18.22769  -15.00304
       H    10.53115  -16.35998   -3.49470
       O    11.31341  -16.60599   -2.88038
      H1    11.89841  -17.10768   -3.44069
       H     3.21047  -17.81135   -8.19270
       O     3.89930  -17.18010   -8.59139
      H1     4.15634  -17.82488   -9.30741
       H     3.78388  -16.48622  -11.12233
       O     3.05641  -16.62210  -11.79523
      H1     2.32339  -16.53440  -11.15570
       H    11.48231  -16.85096   -7.87630
       O    10.97944  -16.01899   -7.67118
      H1    10.05829  -16.39388   -7.64216
       H     2.84837  -14.81559  -12.11692
       O     2.56589  -13.90398  -12.35167
      H1     2.13793  -14.00563  -13.20683
       H     8.53511  -15.80497   -4.10362
       O     9.35964  -16.09223   -4.46619
      H1     9.67191  -15.23285   -4.84234
       H    11.34304  -14.06036  -15.08384
       O    12.09512  -14.71676  -15.04385
      H1    12.77728  -14.16304  -14.61119
       H     8.08626  -16.43278   -7.00923
       O     8.67983  -17.17488   -6.93139
      H1     9.05418  -16.89193   -6.04984
       H     8.17964  -17.43304  -14.09841
       O     7.43827  -17.85667  -14.54209
      H1     7.98506  -18.48948  -15.04169
       H     8.39386  -12.11244   -6.44085
       O     7.44731  -12.35361   -6.52257
      H1     7.22546  -11.75074   -7.25802
       H    10.14888  -10.28842  -10.55433
       O    10.89021  -10.81489  -10.14546
      H1    11.22154  -11.44327  -10.87532
       H     2.84408  -13.55504   -8.31566
       O     2.52309  -12.74093   -7.87983
      H1     3.22126  -12.61717   -7.23397
       H     6.82619  -15.71053   -2.63392
       O     7.04521  -15.12104   -3.39328
      H1     6.42646  -15.40193   -4.13800
       H     8.87595  -17.16680  -10.26335
       O     9.20051  -16.33208  -10.61349
      H1     9.93437  -16.17776  -10.03959
       H    10.21075  -17.07390  -12.78560
       O     9.94593  -17.22824  -13.69818
      H1    10.42114  -16.47620  -14.08663
       H     8.92564  -10.43389  -14.15390
       O     9.14202   -9.93663  -14.90523
      H1    10.03793   -9.60103  -14.73527
       H     6.36693  -15.65947  -10.38497
       O     5.69079  -15.90937  -11.04208
      H1     6.09818  -16.75407  -11.29130
       H    10.11950  -12.37018   -6.85213
       O     9.94021  -11.59071   -6.25388
      H1    10.58766  -10.98323   -6.59454
       H     9.63943  -11.55508  -15.80441
       O     9.35923  -12.09142  -16.52312
      H1     8.38997  -12.17908  -16.45740
       H    16.75984  -18.74595  -12.43356
       O    15.86916  -18.38362  -12.38114
      H1    15.85774  -18.05962  -11.49064
       H    14.45458  -12.43066  -13.56500
       O    14.20127  -13.29264  -13.97597
      H1    14.45698  -13.88913  -13.26056
       H     6.97866  -14.30919   -8.48097
       O     7.00264  -15.32649   -8.36645
      H1     6.20041  -15.43921   -7.77347
       H     6.73085  -18.07042   -6.83975
       O     5.81272  -18.07224   -6.62060
      H1     5.40919  -17.81345   -7.45085
       H     9.75857  -18.88731   -9.58853
       O     8.81349  -18.78537   -9.35695
      H1     8.84275  -18.41503   -8.47323
       H     8.97002   -8.44027   -9.57031
       O     8.85757   -9.08277  -10.27829
      H1     8.17749   -8.80969  -10.91272
       H    15.46389  -14.05497  -11.35640
       O    15.33751  -14.74634  -11.98026
      H1    15.99876  -14.65005  -12.72087
       H     9.33276  -13.47509  -15.49362
       O     9.38369  -14.25624  -14.90570
      H1     8.87761  -13.90115  -14.12321
       H     1.17649  -18.79074  -11.68213
       O     1.98845  -19.33632  -11.88687
      H1     2.64335  -18.63091  -11.97953
       H    15.02427  -12.83018   -9.72980
       O    15.62838  -12.44996  -10.42998
      H1    15.82377  -11.57684   -9.96469
       H     8.61350  -15.45088  -15.78352
       O     8.14987  -16.02201  -16.45804
      H1     7.79424  -16.70716  -15.82796
       H    10.99505   -9.35603   -8.36240
       O    10.92028   -9.21624   -7.41607
      H1    10.69089   -8.25134   -7.40566
       H     5.81813  -15.36253  -13.02527
       O     5.96319  -14.93680  -13.90871
      H1     5.45758  -14.13351  -13.80054
       H    14.70717  -15.28811   -5.63896
       O    14.65019  -14.35423   -5.78444
      H1    15.52427  -14.08480   -5.46161
       H    10.88032  -12.83091   -9.03073
       O    10.13965  -13.30888   -8.59767
      H1    10.57266  -14.14400   -8.32431
       H     7.45230  -11.51570  -12.57126
       O     8.30454  -12.01887  -12.71622
      H1     8.27119  -12.58611  -11.85758
       H     9.42542  -16.90008  -19.36219
       O     9.61778  -16.07431  -18.83190
      H1     9.34256  -16.32032  -17.96219
       H    15.26650  -16.35788   -9.51357
       O    15.86735  -16.74120  -10.15438
      H1    15.75882  -16.07843  -10.91650
       H    12.67430  -16.38665  -14.61176
       O    12.77926  -17.31953  -14.42114
      H1    13.68690  -17.44823  -14.75957
       H     6.44770  -19.05763  -18.48892
       O     6.37529  -18.67537  -17.60834
      H1     7.32203  -18.74945  -17.28493
       H    10.00422  -12.46174  -12.20898
       O    10.97127  -12.50937  -12.34171
      H1    11.14394  -13.46005  -12.15881
       H    13.63611  -13.77146   -8.28608
       O    14.25170  -14.28266   -8.85144
      H1    14.89564  -14.37672   -8.11801
       H     5.91103  -13.32528   -4.08545
       O     5.80392  -12.37739   -4.31101
      H1     6.53317  -12.34106   -5.01189
       H     5.37382  -16.42644   -5.67264
       O     5.56139  -15.47411   -5.45780
      H1     4.71708  -14.91671   -5.53312
       H    14.44066  -10.99685  -10.88406
       O    13.85054  -10.25625  -10.83958
      H1    13.15547  -10.47404  -10.19070
       H     4.18132  -14.26780   -9.15183
       O     3.44164  -14.72703   -9.48633
      H1     3.51315  -15.54803   -8.99724
       H     7.26624   -9.97822   -9.18878
       O     6.77250  -10.41805   -8.44632
      H1     5.89403  -10.00237   -8.58255
       H    12.24107  -14.04716  -16.94724
       O    12.64053  -13.96959  -17.84038
      H1    13.58853  -14.07092  -17.65563
       H     9.05647  -13.46299   -9.96898
       O     8.36228  -13.69912  -10.64687
      H1     8.51740  -14.67657  -10.72463
       H    12.59946  -17.96996  -12.56460
       O    12.16572  -17.96781  -11.64102
      H1    12.70234  -18.66721  -11.22037
       H     6.02778  -15.77422  -16.77302
       O     5.38026  -15.90139  -17.48877
      H1     5.80160  -16.59004  -18.03706
       H     3.79179  -12.89326  -12.98348
       O     4.39776  -12.32495  -13.55413
      H1     3.70118  -11.78592  -13.91635
       H     6.56798  -13.18754  -10.18309
       O     5.71502  -12.95343   -9.75467
      H1     6.02751  -12.21754   -9.21438
       H     4.83709  -11.06402  -12.11465
       O     5.13786  -10.80924  -11.22507
      H1     5.21295  -11.73057  -10.85104

