180
frame 0 | Written by MDAnalysis XYZWriter (release 2.4.3)
       H     8.30774   10.06489    2.27736
       O     7.88819   10.03873    3.17162
      H1     8.69219   10.15711    3.72002
       H     5.72536    3.72257   -4.58888
       O     6.19348    3.83522   -3.77187
      H1     6.01518    4.77642   -3.53138
       H     6.37811    8.72617   -4.05030
       O     6.00343    8.08399   -4.65999
      H1     5.08149    8.28204   -4.52242
       H    -0.69496   11.22367   -1.04862
       O    -0.86903   10.26424   -1.06387
      H1     0.09951    9.90854   -1.08824
       H     6.67567   14.56445   -1.98511
       O     6.98582   13.67231   -1.84748
      H1     6.69958   13.33206   -2.74841
       H     7.12389   13.81247    2.04993
       O     7.26987   12.86259    2.06204
      H1     6.84342   12.67108    2.88322
       H     3.36064   15.86587   -1.97497
       O     3.78138   16.73849   -2.21938
      H1     3.13965   17.08116   -2.90283
       H    -0.39771    6.62782   -1.36548
       O     0.34469    6.90276   -1.92470
      H1     1.02315    6.26523   -1.59497
       H     4.90942   14.71883    1.83839
       O     4.18335   14.33908    1.29301
      H1     4.36097   13.39815    1.19791
       H     7.77060    5.16711   -4.02168
       O     8.65250    5.58078   -3.76603
      H1     9.16091    5.20633   -4.49908
       H     1.52056   12.34061    2.04723
       O     1.66756   11.45198    2.34662
      H1     0.79975   11.02639    2.22267
       H    10.49721    7.80423   -3.97054
       O     9.74052    8.16792   -3.51683
      H1     9.18409    7.33821   -3.59095
       H     4.31460   11.72396   -1.14290
       O     3.48641   11.83967   -1.63650
      H1     2.92726   11.12456   -1.38657
       H    10.80865   12.63747   -0.88045
       O    11.12198   11.89627   -0.33428
      H1    10.58668   12.08432    0.48406
       H     7.41512    5.97623    1.46856
       O     7.40893    5.37389    2.24286
      H1     6.48792    5.15077    2.35460
       H     5.55063   11.34752    0.63017
       O     5.86752   11.28921   -0.30455
      H1     6.24906   12.20459   -0.42765
       H     5.90882    7.61288   -6.60474
       O     5.84025    7.48411   -7.55884
      H1     5.96073    6.49181   -7.59936
       H     4.85072    9.80239    2.07200
       O     4.38211   10.68585    1.96312
      H1     3.41082   10.47046    2.22905
       H     2.85546   13.51724   -1.63701
       O     2.37053   14.37819   -1.55982
      H1     2.11691   14.30260   -0.63663
       H    -1.45813    6.58494    0.47949
       O    -1.74580    6.27240   -0.39142
      H1    -2.45643    6.99675   -0.53913
       H     1.33443   14.19493   -2.97815
       O     0.83441   14.09996   -3.80696
      H1     0.22639   13.33291   -3.55469
       H     5.93263    7.11800   -2.80873
       O     5.91813    6.20999   -2.50509
      H1     6.60753    6.14483   -1.79523
       H     7.85528    3.71690   -0.67076
       O     8.76675    4.03706   -0.80517
      H1     9.07618    3.73234    0.04283
       H     4.66604   10.47213   -6.20769
       O     5.50966   10.85221   -6.09199
      H1     5.96518   10.20043   -5.58517
       H     8.47649    7.39628   -0.46868
       O     7.85324    6.66432   -0.38543
      H1     8.44836    5.90803   -0.55711
       H     7.95882    8.44958    3.59434
       O     8.24153    7.53417    3.87189
      H1     7.73371    6.97546    3.20559
       H    -1.01164   10.17799    1.10658
       O    -0.79093   10.15763    2.06089
      H1    -0.91721    9.24580    2.33841
       H     4.66686   12.14660   -3.19199
       O     5.40705   12.38976   -3.68872
      H1     5.17269   12.02873   -4.56683
       H     3.54022    4.30467    2.36540
       O     4.14461    4.73557    1.71938
      H1     4.31887    4.08151    1.05364
       H     8.47073   13.95469   -1.57036
       O     9.36248   14.07070   -1.14511
      H1     9.74272   14.70339   -1.85424
       H     9.39552   11.41469   -6.06961
       O     9.42230   12.11267   -5.34425
      H1     8.72398   12.68965   -5.67458
       H     3.06839    7.10131    1.38836
       O     2.17018    6.97895    1.71519
      H1     2.24512    6.19818    2.26623
       H    10.55298    7.06361    2.39620
       O    10.59760    7.98893    2.76731
      H1     9.68040    7.93363    3.04664
       H     0.13935    7.04986    1.95552
       O    -0.76759    7.23133    2.23219
      H1    -0.80142    6.79050    3.05945
       H     3.32410    5.11696   -0.34700
       O     2.34770    5.19644   -0.48234
      H1     2.13552    5.72671    0.24800
       H     3.66956    5.65165    4.64129
       O     3.33945    6.51237    4.27102
      H1     2.98173    7.01915    5.05237
       H     4.12590    8.62298   -7.65711
       O     3.52920    9.30060   -7.89140
      H1     4.01468    9.74533   -8.62190
       H     1.33418    3.86796    0.32603
       O     0.61319    3.55059    0.87393
      H1     0.25721    2.97328    0.22969
       H    10.27412    9.40023   -2.14241
       O    10.61362    9.44979   -1.20304
      H1    10.82181   10.45214   -1.09212
       H     4.78232    7.80835    5.90806
       O     5.05070    8.75426    5.87055
      H1     5.39598    8.97950    6.74451
       H    -2.09146    9.06176   -3.63367
       O    -1.61627    9.87539   -3.70776
      H1    -1.32313   10.06849   -2.79792
       H     5.31961    8.74034    4.18494
       O     5.30484    8.36920    3.25035
      H1     4.63699    7.68498    3.47612
       H     9.01863   12.84438    2.05074
       O     9.88682   12.51257    2.10534
      H1    10.24597   13.32130    2.55983
       H     8.43583   10.92771   -4.45519
       O     7.92003   10.13759   -4.42597
      H1     8.58470    9.45332   -4.42497
       H     6.42039    9.91176   -1.75323
       O     6.36580    8.99079   -2.05171
      H1     7.09913    8.58364   -1.52006
       H     0.55946    7.15312   -4.54396
       O     1.04196    6.65389   -5.14944
      H1     0.75109    6.95830   -6.00592
       H     8.85221    9.90232   -0.23761
       O     8.08034    9.49459    0.21482
      H1     7.31287   10.05736    0.16559
       H     4.15208    9.52620    0.64697
       O     4.28522    8.81735   -0.04897
      H1     4.74059    9.21323   -0.80088
       H     6.81470   13.53600   -6.47889
       O     7.13515   13.78913   -5.66896
      H1     6.26486   13.75197   -5.20748
       H     5.52439    4.56918   -1.26485
       O     5.26603    3.82036   -0.69228
      H1     5.36945    2.96392   -1.23960
       H     1.18598    8.42381   -1.77635
       O     1.69104    9.23167   -1.40681
      H1     2.46433    8.84003   -0.92104
       H     2.66960    8.21035    6.80550
       O     2.18702    7.96482    6.03285
      H1     2.07014    8.90828    5.66168
       H     3.36856   10.66283    5.13090
       O     2.42278   10.87073    5.02927
      H1     2.36626   11.16115    4.07782
       H     1.13537   15.24843    1.15392
       O     1.42866   14.31663    1.29075
      H1     2.37234   14.52411    1.42204
       H     0.70438   10.78802   -4.48284
       O     1.10602   11.07046   -3.61666
      H1     1.75418   10.35468   -3.54545
       H     2.90589   13.51210   -5.57689
       O     3.11461   12.55125   -5.72858
      H1     2.49609   12.16422   -4.99711
       H     2.81048    8.56967   -5.26468
       O     3.08407    8.86515   -4.39223
      H1     2.51492    8.29115   -3.87942
       H    -0.23550   11.14875   -6.26050
       O     0.01004   10.29826   -5.86375
      H1    -0.69650   10.09128   -5.26814
       H     5.21591   11.25145    3.84942
       O     5.92972   11.67024    4.38159
      H1     6.66178   11.14728    4.02349
       H     3.54866    4.30150   -4.98189
       O     3.90717    4.52223   -5.87239
      H1     3.32274    5.21699   -6.16868

