180
frame 3 | Written by MDAnalysis XYZWriter (release 2.4.3)
       H    -2.39029    4.02717    4.54352
       O    -2.92436    4.32171    3.78303
      H1    -3.67843    4.73859    4.33351
       H     0.54367    5.41097    7.21967
       O     0.74688    4.68042    6.63708
      H1     1.07773    5.20772    5.88514
       H    -5.61150    7.56961   -1.99046
       O    -6.42535    7.62443   -1.42948
      H1    -5.91634    8.03119   -0.63751
       H    -1.63414    3.83927   -3.94937
       O    -0.76997    3.97998   -4.33309
      H1    -0.50241    4.81975   -3.89220
       H    -0.98325   12.14504   -1.16332
       O    -0.23754   11.57326   -1.43441
      H1    -0.26818   11.55906   -2.36567
       H    -3.98856    4.07086   -3.41147
       O    -3.38999    4.84235   -3.43025
      H1    -3.25983    5.02119   -4.38624
       H    -0.82916   10.19230    5.92789
       O    -1.36551    9.68380    5.30163
      H1    -0.73102    9.19823    4.77558
       H     1.36998    3.45416    7.96337
       O     1.82076    3.19267    8.83737
      H1     1.78025    3.98571    9.32450
       H    -1.15594    5.91658   -2.20934
       O    -0.31496    6.23584   -2.65832
      H1     0.25536    5.76694   -2.04118
       H     1.10396    0.87009    4.59546
       O     1.95790    1.28671    4.85091
      H1     2.54862    0.60483    4.58131
       H     1.03697   10.84444    1.39846
       O     1.49859   10.34842    2.13882
      H1     1.18671    9.43755    2.07555
       H    -3.44808    8.77212    3.10031
       O    -4.34965    8.88836    3.18978
      H1    -4.28364    9.85686    3.16812
       H    -0.27334   13.30126    3.40906
       O    -0.49368   13.05846    4.34774
      H1    -1.39613   12.69493    4.13659
       H    -3.05690   13.95802   -0.98053
       O    -3.91749   13.58134   -0.65983
      H1    -3.72167   12.90914    0.06394
       H     6.01844    5.28419    1.18355
       O     6.18974    5.40310    2.14818
      H1     5.48343    4.90804    2.62149
       H    -7.25032    4.54212   -1.18971
       O    -6.25008    4.76982   -1.38551
      H1    -6.26413    5.77539   -1.30852
       H    -7.54697    4.30075    5.71729
       O    -6.95065    4.27165    6.51446
      H1    -6.14633    4.53140    6.04237
       H    -5.83364    6.16497    4.52744
       O    -5.42794    5.30439    4.47973
      H1    -5.58867    5.12534    3.52387
       H    -5.64547    8.39238    1.79289
       O    -6.18535    8.70408    1.07331
      H1    -6.79526    7.96928    0.95875
       H     4.39784   10.89532    2.44318
       O     5.00473   11.44982    1.95526
      H1     4.54212   12.27752    1.82100
       H    -0.45964    9.15703   -0.79806
       O    -1.25124    8.55440   -0.74147
      H1    -1.17866    8.05392   -1.55132
       H     2.24587   13.52478   -1.72246
       O     1.58222   13.94304   -1.15822
      H1     1.22473   13.26437   -0.56921
       H    -6.27155   10.52817    1.13246
       O    -6.25236   11.47538    0.85073
      H1    -7.25301   11.58329    0.98716
       H    -1.73297    5.41900    0.47943
       O    -2.33211    5.29436   -0.31018
      H1    -2.89476    6.05664   -0.49083
       H     4.92527    5.98567   -2.72593
       O     4.66505    5.77071   -1.81821
      H1     5.48157    5.99744   -1.38809
       H     0.87652   11.32671    7.16244
       O    -0.00152   11.68830    7.01260
      H1     0.16322   12.65087    6.81109
       H    -6.63842    8.39137    5.53600
       O    -6.48311    7.82250    4.78492
      H1    -5.72916    8.26466    4.41238
       H    -8.74935    6.06652    1.37116
       O    -7.85232    6.32680    1.09558
      H1    -7.42672    5.50408    0.97825
       H    -0.78256    8.20334    0.91069
       O    -0.25962    8.03505    1.71250
      H1    -0.62794    7.19503    2.06320
       H     3.26170    3.24274    2.86432
       O     4.17747    3.01100    3.02465
      H1     4.25168    3.37769    3.90816
       H    -2.04923    3.66553    6.71601
       O    -1.56100    3.51401    5.88154
      H1    -0.69784    3.96596    6.04901
       H     1.62120    2.58687    3.62529
       O     1.30461    3.35725    3.08391
      H1     1.41507    2.96512    2.18042
       H     2.25488    6.81457    0.89737
       O     2.33245    6.05811    1.50448
      H1     1.84709    6.32574    2.27013
       H    -0.23957    4.87639    2.45115
       O    -1.03413    5.37772    2.14212
      H1    -1.78969    4.95821    2.57864
       H    -5.47152   11.76178    4.14828
       O    -6.41789   11.32455    4.39458
      H1    -6.84007   12.07297    4.80491
       H    -4.60461    8.24210   -4.03102
       O    -4.31344    7.77510   -3.23140
      H1    -4.32856    6.81944   -3.48788
       H     1.81126    4.22328   -1.16602
       O     1.20864    4.97593   -1.03685
      H1     1.33859    5.13391   -0.08810
       H     2.78645    5.61938    5.21869
       O     2.19790    6.11966    4.65257
      H1     1.91353    6.91379    5.16109
       H     2.39625    2.46187    0.12260
       O     1.82855    1.87127    0.61953
      H1     1.37781    1.33869   -0.10815
       H    -4.96031    3.87941   -0.73562
       O    -4.23696    3.38193   -0.27919
      H1    -3.43822    3.91822   -0.40856
       H    -2.35132    1.12284    4.43774
       O    -2.55429    0.36601    3.85935
      H1    -3.54721    0.33746    4.05073
       H    -3.13160    9.63218   -2.65974
       O    -3.01942   10.52694   -2.37301
      H1    -2.34856   10.40180   -1.70205
       H    -5.72030   11.34557   -1.08676
       O    -5.65452   11.23245   -2.03135
      H1    -4.65979   10.98863   -2.08578
       H     4.39455    9.21466    4.30487
       O     4.12188    9.30571    3.41401
      H1     4.73588    8.83693    2.87149
       H     0.78864    7.32483    7.53060
       O     0.52412    6.72452    8.22225
      H1    -0.41569    7.08339    8.09719
       H     1.29805    6.19507   -4.48652
       O     1.83143    6.40435   -5.29530
      H1     1.06169    6.42150   -5.89723
       H     3.75370    8.28734   -0.97954
       O     3.02513    7.65645   -0.82605
      H1     3.64964    6.86272   -1.02966
       H    -2.41933   12.35357    1.85699
       O    -2.05136   12.46223    0.95015
      H1    -1.61829   13.33222    0.95641
       H    -2.55520    8.59128    8.12352
       O    -1.88169    7.98552    7.66183
      H1    -1.62882    8.52446    6.88980
       H     3.86602    4.06050   -1.56888
       O     3.43353    3.25813   -1.24996
      H1     4.10650    2.58767   -1.07829
       H     0.82361    7.53819   -2.74359
       O     1.31867    8.34978   -2.79959
      H1     2.09321    8.14287   -2.21329
       H     2.65857    8.37728    6.88397
       O     1.83407    8.54218    6.42127
      H1     2.08728    9.42025    5.97332
       H     4.70597    4.00679    5.97386
       O     5.04904    4.49683    5.18291
      H1     5.90494    4.05375    5.18403
       H    -3.44315    1.06496    1.53043
       O    -3.41549    0.85812    0.56585
      H1    -3.54901    1.79746    0.22408
       H     2.14874   10.16097    4.23809
       O     1.91675   10.77562    4.91989
      H1     1.09659   11.14363    4.45912
       H    -3.58478   11.74439    4.05810
       O    -2.87628   11.32039    3.53980
      H1    -2.45138   10.68043    4.13272
       H     0.66175   14.91787    1.83656
       O     0.61789   13.91292    1.90450
      H1     1.55968   13.71676    1.91764
       H     0.86477   11.14979   -4.30553
       O     1.54612   11.22937   -3.61516
      H1     1.82972   10.27596   -3.52307
       H    -6.89660    3.91572    1.63637
       O    -6.05431    4.36737    1.82543
      H1    -5.47032    3.99172    1.19449
       H    -4.90076    1.88188    4.88014
       O    -4.84388    2.08909    3.94241
      H1    -4.19009    2.77526    3.83791

