180
frame 3 | Written by MDAnalysis XYZWriter (release 2.4.3)
       H     6.45687   -4.32128   -4.47177
       O     6.34349   -5.30126   -4.44302
      H1     5.47209   -5.40268   -4.89884
       H     7.88790    1.37242   -3.23024
       O     7.12937    1.96386   -3.07407
      H1     6.45893    1.36712   -3.48208
       H     5.20483   -0.70590   -5.90760
       O     5.43016   -0.29835   -6.71765
      H1     6.11390   -0.91377   -7.04313
       H    12.85066   -8.37607   -7.58188
       O    13.57876   -8.28394   -8.16337
      H1    14.32400   -7.84879   -7.65867
       H    17.29735   -5.64903   -4.63785
       O    17.14864   -5.97528   -3.78254
      H1    17.88567   -5.52866   -3.31231
       H    13.70847   -4.63419   -5.34513
       O    13.32351   -5.39292   -5.83590
      H1    13.03352   -6.01084   -5.14949
       H    13.60679    2.14545   -6.39301
       O    13.07137    1.32440   -6.55476
      H1    13.45530    1.15642   -7.42115
       H     7.08419   -6.11856  -11.78225
       O     7.63953   -5.31709  -11.87351
      H1     7.45230   -4.98607  -12.77931
       H     9.86285   -2.66146  -13.78232
       O     9.10802   -2.23334  -13.27072
      H1     8.86705   -1.40355  -13.80229
       H     9.78944   -4.99221   -4.80739
       O     9.28682   -5.81054   -4.61614
      H1     8.39137   -5.42413   -4.51573
       H    11.86824   -2.58319  -14.87137
       O    11.58895   -3.30778  -14.30863
      H1    11.71411   -4.00118  -14.96033
       H    14.59525   -0.81892  -11.48898
       O    15.13835   -0.02166  -11.48020
      H1    14.93816    0.31397  -10.57408
       H    12.11725   -5.60012   -1.16672
       O    12.35201   -4.59654   -1.11370
      H1    13.25301   -4.67856   -1.49684
       H     9.06833   -2.58121  -11.50332
       O     9.27769   -2.55699  -10.52892
      H1     8.40193   -2.92486  -10.33028
       H    14.25495   -4.39849  -10.25579
       O    13.69764   -3.59990  -10.41719
      H1    12.80243   -3.94405  -10.41301
       H    16.25007   -1.06984  -10.53142
       O    17.16799   -1.48840  -10.38035
      H1    16.94009   -2.22529   -9.82105
       H    15.80882    0.28866   -3.21190
       O    15.24103   -0.46912   -3.17212
      H1    14.50091    0.01772   -3.55606
       H    15.77502   -6.58175   -7.32058
       O    15.53930   -7.00151   -6.48038
      H1    14.79559   -6.33767   -6.25431
       H    10.89605   -9.53721  -10.54087
       O    11.47950  -10.28723  -10.62421
      H1    11.13510  -10.85096  -11.35386
       H    18.75194   -3.98586   -5.97715
       O    17.97661   -4.47973   -6.30903
      H1    17.21916   -3.94659   -5.94311
       H    13.96632   -3.03919  -12.00442
       O    13.97542   -2.52378  -12.83381
      H1    13.18811   -2.93046  -13.31622
       H     8.45722   -5.18353   -6.83111
       O     8.48094   -4.57283   -7.55024
      H1     9.26432   -3.99759   -7.36330
       H     7.52523   -2.34287   -6.02158
       O     7.12371   -2.25174   -6.86524
      H1     7.14869   -3.19096   -7.18910
       H    12.90995   -1.66512   -1.89013
       O    13.56141   -1.43556   -1.25172
      H1    14.27411   -1.10029   -1.82941
       H    11.45109    1.73566  -10.21014
       O    11.87864    2.44225  -10.71989
      H1    11.94001    3.22395  -10.20570
       H    18.12272   -0.00502   -6.59242
       O    18.17902   -0.96094   -6.37752
      H1    17.31347   -1.24976   -6.71770
       H    10.34665   -0.79553  -10.14741
       O    10.46969    0.11193   -9.79804
      H1     9.73486    0.57304  -10.26054
       H    15.34412    0.90848   -8.59444
       O    14.65888    0.23321   -8.80998
      H1    15.14224   -0.52255   -8.45398
       H    10.04637  -11.36763   -7.25291
       O     9.83401  -10.95406   -6.37481
      H1    10.04285   -9.97812   -6.42843
       H    15.42410   -5.75250   -9.69110
       O    15.74536   -5.21528   -8.99315
      H1    16.71705   -5.23922   -9.09965
       H    18.30932   -3.93294   -8.26892
       O    18.17524   -4.11150   -9.20476
      H1    18.90537   -3.62675   -9.67688
       H     6.44313   -1.01655   -9.42767
       O     5.98645   -0.22855   -9.76795
      H1     5.27602   -0.59316  -10.31535
       H    10.78154    1.92783   -6.14152
       O     9.97729    1.60143   -5.73461
      H1     9.79066    0.80631   -6.32490
       H     8.98941   -4.26091   -1.28226
       O     8.51973   -3.44842   -1.55075
      H1     9.34502   -2.88373   -1.52062
       H    14.77068   -2.60534   -7.74972
       O    15.79578   -2.51315   -7.84391
      H1    15.84547   -3.38843   -8.30640
       H    12.84299    1.93949  -12.29900
       O    13.26827    1.39116  -12.96340
      H1    13.92286    0.95405  -12.41292
       H    10.37884   -6.58315   -9.03564
       O     9.45388   -6.69005   -8.74050
      H1     9.21444   -5.80156   -8.44928
       H    10.37590   -4.01962  -10.54619
       O    10.88410   -4.79886  -10.27382
      H1    10.79015   -5.33401  -11.04410
       H    10.95904   -6.73587   -3.86334
       O    11.76165   -7.15696   -4.19203
      H1    12.19120   -7.42573   -3.32019
       H     8.95391   -8.11630   -9.64127
       O     8.90981   -8.82476  -10.32504
      H1     8.24691   -8.57887  -10.95923
       H     5.74518    1.65883   -6.65747
       O     5.73901    2.65236   -6.73096
      H1     4.78428    2.82747   -6.66813
       H    10.06820   -1.31742   -3.17797
       O    10.59272   -1.91974   -2.58603
      H1    11.25116   -2.18284   -3.30015
       H     8.56180   -1.41970   -4.33203
       O     8.22742   -2.31964   -4.37550
      H1     8.34226   -2.64576   -3.47630
       H    12.75598   -1.46679   -4.51750
       O    12.30028   -2.33927   -4.54805
      H1    12.05437   -2.36103   -5.48192
       H     9.32786   -5.94047  -12.22097
       O    10.24123   -5.90326  -12.63023
      H1    10.58014   -6.81740  -12.62475
       H    12.94758   -4.40303   -7.52566
       O    12.83259   -3.44879   -7.70731
      H1    12.92708   -3.34895   -8.67966
       H    11.21672   -2.97399   -7.48563
       O    10.32738   -2.78663   -7.08679
      H1    10.20329   -1.83033   -7.22967
       H    10.17266   -7.81314   -7.29483
       O    10.84360   -8.43533   -6.99130
      H1    11.11221   -8.08896   -6.12574
       H    15.72285   -5.70099   -2.30109
       O    15.12870   -5.10577   -1.85832
      H1    15.62679   -4.35757   -1.58175
       H     6.57929   -3.87743  -10.62712
       O     6.37029   -3.45137   -9.80919
      H1     5.98316   -4.23404   -9.30149
       H    12.71180    0.82794   -4.73996
       O    12.57797    0.35499   -3.92417
      H1    12.24111    1.04974   -3.32017
       H    12.42155   -0.74445  -13.85544
       O    12.51117   -0.58250  -14.80042
      H1    13.41366   -0.84817  -15.07033
       H     8.33703    1.82552   -9.97947
       O     8.29533    1.21185  -10.73129
      H1     7.52789    0.66560  -10.39924
       H     6.34241   -3.89549  -14.02835
       O     7.21898   -4.21526  -14.04806
      H1     7.76214   -3.45210  -13.79442
       H     9.93376    0.26198   -2.73700
       O     9.28117    0.26584   -3.46080
      H1     9.80815    0.55291   -4.27124
       H    13.92800    3.91416   -8.63804
       O    14.40174    3.15930   -8.26718
      H1    15.16516    3.16273   -8.87603
       H     9.55870   -0.34305   -8.32223
       O     9.13690   -0.36692   -7.41259
      H1     8.69742   -1.23156   -7.48818
       H    14.53652   -6.47004  -11.83754
       O    14.19983   -6.52624  -10.89674
      H1    14.42772   -7.37841  -10.49182
       H    12.56457   -7.36290  -11.72651
       O    12.01886   -7.93811  -12.31886
      H1    12.29125   -8.80764  -11.93530
       H     7.55627   -8.15109   -7.22856
       O     7.50433   -7.37700   -6.62344
      H1     8.25424   -7.61333   -6.05827

