180
frame 10 | Written by MDAnalysis XYZWriter (release 2.4.3)
       H    -8.88857  -14.99524   -1.64079
       O    -8.15588  -15.60195   -1.87138
      H1    -7.34134  -14.96901   -2.03109
       H     1.41850  -12.85546   -0.54261
       O     2.02907  -13.29097   -1.18907
      H1     2.89110  -12.82801   -0.95868
       H    -3.45447  -17.71852   -0.66073
       O    -2.83851  -18.38073   -0.33180
      H1    -3.01755  -19.13380   -0.92931
       H    -1.41958  -13.75357    4.02890
       O    -1.85427  -13.05204    3.53523
      H1    -2.34290  -12.54097    4.20408
       H    -4.77433  -14.84380   -4.45603
       O    -4.63274  -15.79725   -4.63902
      H1    -4.54742  -16.17731   -3.69591
       H     0.29055  -13.84414   -6.10450
       O     0.71524  -14.71176   -6.28377
      H1     0.42569  -15.29241   -5.58364
       H    -2.38227   -8.99507   -1.53560
       O    -1.73068   -8.55434   -0.90142
      H1    -1.36677   -7.89420   -1.47955
       H    -9.26074  -14.03190    0.70513
       O    -8.90705  -13.20344    1.03303
      H1    -8.10626  -13.43770    1.42331
       H    -5.87037  -13.40425    2.23453
       O    -6.56189  -13.94825    2.58871
      H1    -6.26124  -14.82903    2.30376
       H   -10.81548  -12.67080    1.58605
       O   -11.47976  -12.25102    2.08145
      H1   -11.10125  -12.06370    2.91733
       H    -4.75576   -9.74227    2.38958
       O    -5.32108  -10.49064    2.67891
      H1    -6.19146  -10.08126    2.62442
       H    -9.76942  -14.60919    4.28691
       O    -9.15382  -13.91155    4.42807
      H1    -8.73465  -13.82786    3.56397
       H    -9.79635  -10.83683   -2.28043
       O    -9.31750  -11.66303   -1.99551
      H1    -9.69559  -11.84668   -1.12652
       H    -2.36964  -11.37749   -3.00198
       O    -1.72160  -11.36930   -3.76058
      H1    -2.13056  -10.72577   -4.40866
       H    -1.55482  -11.27305    1.32367
       O    -2.52589  -11.06330    1.43273
      H1    -2.78747  -11.70155    2.10933
       H    -4.64099  -12.30298   -4.66210
       O    -5.25209  -12.95468   -4.29720
      H1    -5.85032  -12.87866   -5.06261
       H   -10.98993  -13.72216   -1.93961
       O   -10.54936  -14.31930   -1.29160
      H1   -11.27166  -14.69473   -0.79480
       H    -7.15463  -17.85842    0.51105
       O    -7.41044  -18.32240   -0.29524
      H1    -7.86742  -17.57683   -0.76833
       H    -6.22157  -16.49316    1.57720
       O    -7.06417  -16.84469    1.87140
      H1    -7.02735  -17.11551    2.81437
       H    -3.62765  -17.50895   -2.40752
       O    -4.33413  -16.88900   -2.18830
      H1    -5.01704  -17.21540   -2.77835
       H     3.05198  -16.03404   -2.87709
       O     2.71695  -16.89208   -2.55278
      H1     1.78663  -16.74630   -2.87712
       H     1.28612  -11.69392    1.38946
       O     0.62292  -12.43552    1.22611
      H1    -0.06929  -12.38288    1.94622
       H    -3.62798  -18.35753    3.52958
       O    -3.25477  -17.53237    3.21851
      H1    -2.29869  -17.75663    3.00176
       H     0.50583  -12.03085   -5.36539
       O    -0.17308  -12.21355   -6.06717
      H1    -0.98943  -12.17665   -5.52203
       H    -2.65678   -7.58469    0.23487
       O    -3.12895   -7.02311    0.89841
      H1    -2.68868   -6.13515    0.79383
       H    -3.83398  -13.48358    7.50992
       O    -4.66447  -13.26441    7.04950
      H1    -4.37422  -12.87546    6.19499
       H    -8.23684  -10.58448   -2.89163
       O    -7.85882  -10.22559   -3.69438
      H1    -8.11485   -9.31238   -3.88615
       H    -9.42388  -15.01937   -5.17080
       O    -9.84562  -14.48643   -5.80779
      H1   -10.42594  -13.92558   -5.26174
       H     0.48852   -8.81544    1.27685
       O     1.25399   -9.28108    0.96417
      H1     1.72699   -9.66089    1.72318
       H    -7.02455  -18.77258   -3.31777
       O    -6.42273  -18.08822   -3.70192
      H1    -7.02365  -17.46490   -4.10669
       H     0.79775  -10.25422   -0.64610
       O     0.89768  -10.46792   -1.55436
      H1     0.15581   -9.97058   -1.98142
       H    -8.82991  -16.30987   -3.30339
       O    -9.31353  -16.54019   -4.10350
      H1    -8.55174  -16.41500   -4.73082
       H    -3.74557  -12.41662   -0.81018
       O    -3.60249  -11.49558   -1.13661
      H1    -3.11989  -11.30445   -0.29382
       H     1.95551  -13.75177    2.40975
       O     2.79265  -14.19878    2.59745
      H1     2.61350  -15.09112    2.95084
       H    -5.63866  -10.70731   -7.62718
       O    -6.47745  -10.51835   -7.19224
      H1    -6.58905  -11.34696   -6.69285
       H    -5.07467  -16.24364    6.33638
       O    -5.07605  -17.15552    6.66337
      H1    -4.14396  -17.36717    6.61319
       H    -6.72841  -13.11508   -1.37623
       O    -6.22993  -13.80853   -1.83251
      H1    -6.11890  -13.41469   -2.71656
       H    -7.29113  -14.11722   -6.27901
       O    -6.81232  -13.28322   -6.49055
      H1    -6.22681  -13.52739   -7.25445
       H   -10.32526  -16.63600    3.02248
       O   -10.29893  -16.48180    2.02729
      H1    -9.33218  -16.52446    1.83915
       H     2.51446  -11.66564   -3.95600
       O     2.32368  -12.43737   -4.53807
      H1     2.24822  -13.14308   -3.84820
       H    -4.80106  -14.21027   -1.15941
       O    -3.91410  -14.13206   -0.59670
      H1    -3.33748  -14.59041   -1.23619
       H    -7.69674   -8.57753    1.80432
       O    -7.87826   -9.56614    1.83396
      H1    -8.14573   -9.71407    0.89364
       H    -5.90263  -13.91226    5.95264
       O    -6.15801  -14.57825    5.27112
      H1    -6.23188  -14.19188    4.44194
       H    -4.10280   -9.31702   -4.62441
       O    -3.35345   -9.58128   -5.23275
      H1    -2.96283   -8.72498   -5.47738
       H    -0.63283  -10.70699    4.38543
       O    -0.07111  -10.59193    3.60385
      H1     0.37115   -9.72996    3.87066
       H    -0.17671  -13.88762   -1.49187
       O    -0.96258  -14.39345   -1.29969
      H1    -0.98279  -14.43753   -0.35977
       H    -4.15461  -16.60278    1.96763
       O    -4.63664  -16.00722    1.40608
      H1    -3.94952  -15.46596    1.02661
       H    -4.87626  -10.59509   -2.50839
       O    -5.06680  -10.04981   -3.29139
      H1    -6.05221  -10.00813   -3.37311
       H    -2.37969  -19.09833    6.00865
       O    -2.39153  -18.12779    5.86243
      H1    -2.72617  -17.99010    4.91609
       H    -3.25033  -10.81264    5.27145
       O    -3.77320  -11.52883    4.80844
      H1    -4.34193  -11.03432    4.14322
       H    -0.42739  -18.74372   -5.10056
       O    -0.39429  -17.91342   -5.63080
      H1    -1.33828  -17.85526   -5.85358
       H    -4.70362   -7.90684   -3.09336
       O    -4.47839   -6.97489   -3.05823
      H1    -3.59254   -6.85000   -2.72522
       H    -5.03738  -11.55369   -0.18976
       O    -5.97516  -11.65163    0.11849
      H1    -5.73159  -11.35052    1.02946
       H    -7.25691  -15.85466    5.16145
       O    -7.35947  -16.76572    4.82376
      H1    -6.53932  -17.19435    5.24754
       H    -1.14271  -15.95236    4.76574
       O    -0.77093  -15.18035    5.28779
      H1     0.13122  -15.32130    4.89388
       H    -0.38374  -18.21307    3.88902
       O    -0.49068  -17.38741    3.34584
      H1     0.44273  -17.37315    2.98109
       H    -0.53610  -16.62228   -3.71426
       O     0.21356  -16.23723   -3.20949
      H1    -0.22344  -15.73082   -2.49539
       H    -7.40326  -16.62574   -6.61565
       O    -7.14124  -16.31596   -5.75165
      H1    -6.19631  -16.20956   -5.86210
       H    -1.48853   -9.06266    2.55111
       O    -1.21197   -8.17488    2.31902
      H1    -2.01932   -7.80318    2.06334
       H    -9.33129  -19.73297   -3.70340
       O    -9.10382  -19.16907   -2.97402
      H1    -9.25793  -18.31545   -3.41828

