180
frame 3 | Written by MDAnalysis XYZWriter (release 2.4.3)
       H     2.96897  -18.61090   -1.81914
       O     3.29539  -19.53478   -1.54996
      H1     2.48921  -20.07302   -1.46367
       H     6.92387  -17.26555  -10.73561
       O     7.81254  -17.72239  -10.84533
      H1     8.33155  -17.23909  -10.14232
       H     5.79162  -13.77736   -3.82835
       O     4.89447  -13.78736   -3.45887
      H1     4.62960  -12.93427   -3.97411
       H    -0.93604  -18.99714   -1.06347
       O    -1.03705  -19.25188   -0.12644
      H1    -1.59110  -20.02150   -0.18211
       H    -3.68626  -15.68336   -5.73254
       O    -3.87732  -15.83369   -4.78875
      H1    -2.97019  -15.85784   -4.46604
       H     0.99389  -12.59197   -4.59885
       O     1.52791  -12.88904   -3.82411
      H1     1.01862  -13.58902   -3.39740
       H    -1.19525  -14.92446   -9.78693
       O    -1.41359  -13.98183   -9.82523
      H1    -2.27058  -13.93129  -10.25016
       H     6.46888  -19.46230  -14.17094
       O     5.70350  -19.33111  -13.61837
      H1     5.13384  -18.80152  -14.31096
       H     1.90590  -16.25316   -9.56478
       O     1.75328  -16.72775   -8.79959
      H1     1.77190  -16.02481   -8.12922
       H     5.11736  -17.37922  -16.39746
       O     4.50327  -17.66621  -15.70768
      H1     4.46636  -16.78933  -15.20763
       H     4.19474  -17.20466   -9.39073
       O     5.02550  -16.80416   -9.64024
      H1     4.60230  -16.05811  -10.13437
       H     4.88732  -19.52888   -6.89516
       O     5.10845  -18.68010   -7.28998
      H1     5.78577  -18.93121   -7.97231
       H    -2.37243  -16.00930  -15.36192
       O    -1.48198  -16.23720  -15.24904
      H1    -1.35954  -16.30861  -14.28761
       H     3.60619  -14.86128  -14.39012
       O     3.91361  -15.56399  -13.74859
      H1     4.81067  -15.31839  -13.51856
       H    -1.52374  -10.66027   -8.03662
       O    -1.52839  -10.98444   -8.92257
      H1    -1.50555  -11.94935   -8.89643
       H     2.43277  -12.97104  -11.95387
       O     3.41410  -12.90887  -11.94585
      H1     3.64977  -13.22378  -12.83309
       H     0.09810  -13.87064  -16.54824
       O     0.09680  -13.68151  -15.61040
      H1    -0.32152  -14.51956  -15.24877
       H    -1.39914  -16.53207   -3.03379
       O    -1.33608  -15.93970   -3.75374
      H1    -1.61122  -15.07730   -3.38312
       H     3.12711  -15.50477  -12.19707
       O     2.79741  -16.00568  -11.41612
      H1     2.77181  -16.92355  -11.75147
       H    -4.18759  -18.57151   -9.88187
       O    -4.78489  -19.22982  -10.29358
      H1    -4.80145  -19.81535   -9.52885
       H     3.76036  -12.93531   -9.14495
       O     4.13587  -12.94664   -8.29804
      H1     4.88841  -13.50639   -8.38867
       H    -5.70647  -18.36541  -15.80758
       O    -4.85092  -17.99391  -15.52693
      H1    -4.40913  -18.65790  -14.95244
       H     6.74688  -16.04097   -3.28271
       O     7.09915  -15.52611   -4.06685
      H1     6.46955  -15.89538   -4.70917
       H     1.13647  -17.33492   -2.70660
       O     2.01798  -17.16939   -2.28280
      H1     2.46778  -16.63173   -2.96468
       H     0.72380  -16.85217  -13.86512
       O     0.27276  -16.51451  -13.05267
      H1     1.02171  -16.04159  -12.65991
       H     2.94913  -14.08598   -7.69684
       O     2.36849  -14.62825   -7.09516
      H1     1.68007  -14.01348   -6.82254
       H    -0.93627  -12.63271   -6.47791
       O    -0.23864  -12.38921   -5.85580
      H1    -0.54419  -11.43131   -5.80367
       H     6.54278  -14.72814  -11.96726
       O     6.46420  -15.11520  -12.90903
      H1     7.21392  -15.74174  -12.88782
       H    -6.41191  -14.78074   -7.82353
       O    -7.31749  -14.55857   -7.75702
      H1    -7.17935  -13.68249   -7.35551
       H    -4.56056  -15.19297  -12.85929
       O    -3.88343  -15.83810  -12.81941
      H1    -4.41241  -16.65966  -12.67272
       H    -2.12696  -14.37713  -13.03249
       O    -1.84382  -13.55531  -13.40568
      H1    -0.85863  -13.57934  -13.32342
       H    -6.93587  -19.23462   -3.31382
       O    -5.97594  -19.18408   -3.48905
      H1    -5.85722  -18.23606   -3.70925
       H     6.67986  -13.67484   -6.97712
       O     6.47389  -14.30079   -7.62782
      H1     6.06233  -14.98697   -7.14548
       H     8.59703  -20.11808   -6.73858
       O     8.03794  -19.37575   -6.35943
      H1     7.65594  -18.96598   -7.14617
       H    -4.49476  -13.20171  -11.67513
       O    -3.86520  -12.74954  -11.12392
      H1    -3.99425  -11.81787  -11.48512
       H    -0.40629  -18.35582   -9.82362
       O    -0.58129  -18.11926   -8.91161
      H1     0.19499  -17.60394   -8.73709
       H    -7.93252  -17.65597   -9.13438
       O    -7.02182  -17.93780   -8.94433
      H1    -6.63615  -18.15253   -9.76634
       H     1.45587   -8.72062   -8.17912
       O     0.52478   -8.99658   -8.06264
      H1     0.45233   -9.77487   -8.60249
       H    -3.33220  -12.72673   -6.54228
       O    -2.79870  -13.20387   -7.23587
      H1    -3.46765  -13.83456   -7.64766
       H     3.84970  -12.55109   -5.78799
       O     3.94969  -11.66740   -5.36162
      H1     3.08447  -11.47175   -4.94500
       H     3.55257  -14.78093   -3.94824
       O     2.99271  -15.47376   -4.35814
      H1     2.54611  -14.92415   -5.01662
       H     0.99159  -16.49355  -16.04475
       O     1.49269  -17.19758  -15.66855
      H1     2.33155  -17.06207  -16.03193
       H     2.24145  -18.76256  -11.55417
       O     3.08339  -18.69332  -12.05701
      H1     3.76342  -18.85385  -11.40149
       H    -0.34388  -19.53793  -11.68599
       O     0.12705  -18.79336  -11.32120
      H1    -0.03689  -18.00835  -11.90823
       H     1.83198  -13.40179  -15.14044
       O     2.72995  -13.32047  -14.71276
      H1     3.38075  -13.16739  -15.44301
       H    -3.96890  -19.16790   -5.97961
       O    -4.35788  -18.68006   -6.74194
      H1    -5.27145  -18.43227   -6.39256
       H     0.69808  -12.65685  -12.31052
       O     0.63784  -13.56524  -11.95154
      H1    -0.13804  -13.53729  -11.34148
       H    -0.59174  -15.47271   -6.23191
       O    -0.76359  -15.38372   -7.19673
      H1    -1.35374  -14.61427   -7.24494
       H    -6.85007  -17.27119   -7.13457
       O    -6.76838  -17.52641   -6.18202
      H1    -6.73703  -16.67178   -5.76944
       H     3.90472  -10.62264  -10.01073
       O     3.19826  -10.59421   -9.36554
      H1     3.52888  -11.11374   -8.64901
       H    -1.51934  -17.80036  -15.25683
       O    -1.45778  -18.80009  -15.37027
      H1    -1.72222  -19.10853  -14.50108
       H    -3.96969  -15.73284   -8.46189
       O    -4.54089  -14.95963   -8.26720
      H1    -4.65901  -14.55451   -9.16950
       H     4.89298  -17.28461   -6.25531
       O     5.11657  -16.36270   -5.97418
      H1     4.26213  -16.01899   -5.56131
       H     6.92834  -13.28821  -10.50514
       O     6.55928  -14.18304  -10.38407
      H1     6.55451  -14.27445   -9.45254
       H    -0.26991  -10.69453  -13.45972
       O     0.60272  -11.11979  -13.23777
      H1     0.85060  -10.59577  -12.45444
       H    -3.41007  -17.88979   -8.24794
       O    -3.18671  -17.28335   -8.98083
      H1    -2.19009  -17.17871   -8.85936
       H    -0.96637  -18.51474   -4.00558
       O    -0.35075  -18.64552   -3.24327
      H1     0.31735  -19.18253   -3.68346
       H     3.83051  -19.58102   -3.18998
       O     3.96530  -19.37578   -4.15797
      H1     4.60492  -18.69469   -4.21767
       H    -5.59783  -15.89747   -4.47581
       O    -6.47553  -15.61186   -4.28569
      H1    -6.62837  -15.78594   -3.36989
       H    -3.77809  -19.66156  -12.81641
       O    -3.34151  -18.82302  -13.04960
      H1    -3.40260  -18.26767  -12.24496

