180
frame 3 | Written by MDAnalysis XYZWriter (release 2.4.3)
       H    -7.14125  -15.55737   -1.33727
       O    -6.20936  -15.82880   -1.41142
      H1    -5.83309  -14.90099   -1.41269
       H    -0.93604  -18.99714   -1.06347
       O    -1.03705  -19.25188   -0.12644
      H1    -1.59110  -20.02150   -0.18211
       H    -1.75248  -14.91874    2.09620
       O    -2.11355  -14.04275    1.84054
      H1    -2.54863  -13.79968    2.68879
       H    -3.68626  -15.68336   -5.73254
       O    -3.87732  -15.83369   -4.78875
      H1    -2.97019  -15.85784   -4.46604
       H     0.99389  -12.59197   -4.59885
       O     1.52791  -12.88904   -3.82411
      H1     1.01862  -13.58902   -3.39740
       H    -6.71783   -8.44185   -6.01126
       O    -7.57535   -8.28981   -5.55580
      H1    -7.40905   -7.46051   -5.06314
       H    -3.02764   -7.92379   -3.71367
       O    -2.62019   -7.10734   -3.47034
      H1    -3.41687   -6.55286   -3.44938
       H    -6.04649  -11.96333    1.04274
       O    -5.60086  -11.75769    0.20546
      H1    -4.86682  -11.23140    0.60512
       H    -7.56369  -12.72139    2.16855
       O    -7.81557  -13.39547    1.49072
      H1    -7.24312  -14.17309    1.71260
       H    -6.35403   -6.34037   -3.06398
       O    -5.98176   -6.52069   -2.13676
      H1    -5.30001   -5.84283   -2.02891
       H    -8.71869  -10.73748   -2.04696
       O    -7.84233  -11.12592   -2.24499
      H1    -7.37407  -10.87217   -1.41439
       H    -1.52374  -10.66027   -8.03662
       O    -1.52839  -10.98444   -8.92257
      H1    -1.50555  -11.94935   -8.89643
       H    -2.12750  -13.43621   -1.40520
       O    -2.61500  -13.78951   -2.17088
      H1    -2.84176  -12.94071   -2.61512
       H     0.83038  -12.86114    2.13574
       O     0.53767  -13.63716    1.78023
      H1    -0.44533  -13.67659    2.05284
       H    -1.39914  -16.53207   -3.03379
       O    -1.33608  -15.93970   -3.75374
      H1    -1.61122  -15.07730   -3.38312
       H    -1.49509  -12.32394    3.83187
       O    -1.01030  -11.60931    3.31802
      H1    -1.20823  -10.84882    3.93028
       H    -8.38230  -13.72665   -1.46674
       O    -8.60254  -14.60220   -1.83644
      H1    -9.00478  -14.99008   -1.04522
       H    -4.91855  -17.65280   -0.84767
       O    -4.90396  -18.59128   -0.99537
      H1    -5.38750  -18.68032   -1.87241
       H    -5.50985  -15.39214    1.95387
       O    -6.18395  -15.16817    2.63308
      H1    -5.78040  -15.49097    3.48184
       H     1.13647  -17.33492   -2.70660
       O     2.01798  -17.16939   -2.28280
      H1     2.46778  -16.63173   -2.96468
       H     2.76134  -16.66245   -0.42793
       O     3.02378  -15.86414    0.01238
      H1     2.39005  -15.22773   -0.47649
       H    -2.74693  -18.54827    1.32393
       O    -3.25718  -18.32295    2.15708
      H1    -2.52771  -18.31605    2.78328
       H     2.94913  -14.08598   -7.69684
       O     2.36849  -14.62825   -7.09516
      H1     1.68007  -14.01348   -6.82254
       H    -0.93627  -12.63271   -6.47791
       O    -0.23864  -12.38921   -5.85580
      H1    -0.54419  -11.43131   -5.80367
       H    -6.41191  -14.78074   -7.82353
       O    -7.31749  -14.55857   -7.75702
      H1    -7.17935  -13.68249   -7.35551
       H    -2.41141   -7.12533   -1.67461
       O    -2.61147   -7.43506   -0.81107
      H1    -2.71922   -6.60264   -0.40081
       H    -6.43608  -13.37231   -3.84480
       O    -6.53296  -12.56193   -4.39802
      H1    -6.66851  -11.90587   -3.68833
       H     1.24419   -7.75850   -3.00839
       O     2.05391   -7.49503   -3.40851
      H1     2.69381   -8.13996   -3.13285
       H    -6.93587  -19.23462   -3.31382
       O    -5.97594  -19.18408   -3.48905
      H1    -5.85722  -18.23606   -3.70925
       H    -0.08634   -6.07487   -3.95853
       O    -0.38510   -6.40497   -4.82351
      H1    -1.04841   -7.06813   -4.56679
       H    -9.63372  -15.26611   -3.25650
       O   -10.09952  -15.95776   -3.79002
      H1   -10.02274  -15.57980   -4.66637
       H    -1.38700  -12.99321    0.48614
       O    -1.05740  -12.69795   -0.37028
      H1    -0.40661  -13.39417   -0.64589
       H    -5.21085  -11.75333   -9.78166
       O    -5.77573  -11.16619   -9.33657
      H1    -5.10578  -10.71013   -8.74230
       H    -6.89627  -11.35301   -7.19499
       O    -7.70563  -11.76863   -6.82363
      H1    -7.38364  -11.91016   -5.89599
       H    -0.28559   -9.24358   -6.37226
       O    -0.42057   -9.61373   -5.49174
      H1     0.45370   -9.45863   -5.11104
       H    -4.35218   -8.59754   -6.66309
       O    -5.05635   -9.16418   -7.00228
      H1    -5.22672   -8.76671   -7.85047
       H    -5.42871  -12.61668   -1.15521
       O    -5.48046  -13.33800   -1.84257
      H1    -4.55140  -13.65580   -1.95601
       H    -3.33220  -12.72673   -6.54228
       O    -2.79870  -13.20387   -7.23587
      H1    -3.46765  -13.83456   -7.64766
       H     3.84970  -12.55109   -5.78799
       O     3.94969  -11.66740   -5.36162
      H1     3.08447  -11.47175   -4.94500
       H     3.55257  -14.78093   -3.94824
       O     2.99271  -15.47376   -4.35814
      H1     2.54611  -14.92415   -5.01662
       H    -0.48303  -17.38881    0.68776
       O    -0.39338  -16.45181    0.52190
      H1     0.47359  -16.33716    0.88067
       H    -7.52282   -8.36769    0.11015
       O    -7.59777   -9.34007    0.11793
      H1    -6.68902   -9.57028    0.21138
       H    -3.10657   -6.56190   -6.71213
       O    -3.59844   -7.10999   -6.08113
      H1    -3.10757   -6.86532   -5.23882
       H    -5.21344  -12.19520   -5.34834
       O    -4.53647  -11.70993   -5.85568
      H1    -5.12228  -11.02838   -6.22466
       H    -0.87830  -11.10421    0.47701
       O    -0.40502  -10.28631    0.62779
      H1    -0.21693  -10.39772    1.58503
       H     1.41443  -13.70702   -0.60744
       O     1.09811  -14.29649   -1.28257
      H1     0.61654  -14.97307   -0.71519
       H    -3.47198  -16.85268    0.89287
       O    -3.68327  -16.00213    0.39022
      H1    -3.09477  -15.37166    0.81963
       H    -3.96890  -19.16790   -5.97961
       O    -4.35788  -18.68006   -6.74194
      H1    -5.27145  -18.43227   -6.39256
       H    -3.86210   -9.79922   -3.28815
       O    -3.99247   -9.48526   -4.18809
      H1    -4.07752  -10.34311   -4.62270
       H    -3.47482  -12.01627    4.71801
       O    -3.56942  -12.85965    4.21473
      H1    -4.09872  -12.57348    3.47544
       H    -0.59174  -15.47271   -6.23191
       O    -0.76359  -15.38372   -7.19673
      H1    -1.35374  -14.61427   -7.24494
       H    -6.85007  -17.27119   -7.13457
       O    -6.76838  -17.52641   -6.18202
      H1    -6.73703  -16.67178   -5.76944
       H    -3.96969  -15.73284   -8.46189
       O    -4.54089  -14.95963   -8.26720
      H1    -4.65901  -14.55451   -9.16950
       H    -5.26974   -8.63237   -1.27361
       O    -4.79334   -9.04461   -0.54942
      H1    -4.09807   -8.39225   -0.55991
       H     3.47866  -12.19116   -1.98875
       O     3.02021  -11.36755   -1.70504
      H1     2.11661  -11.60701   -2.01042
       H    -1.62046  -16.55376    4.21980
       O    -1.87032  -15.62425    3.94992
      H1    -2.68770  -15.53151    4.47874
       H    -0.00560   -7.26840    0.90117
       O     0.13483   -6.61323    1.61007
      H1     0.45270   -5.85077    1.11684
       H    -0.96637  -18.51474   -4.00558
       O    -0.35075  -18.64552   -3.24327
      H1     0.31735  -19.18253   -3.68346
       H    -5.59783  -15.89747   -4.47581
       O    -6.47553  -15.61186   -4.28569
      H1    -6.62837  -15.78594   -3.36989
       H     0.26841   -9.01349   -0.33647
       O     0.32133   -8.12152   -0.84679
      H1    -0.59265   -7.80496   -0.88378

