180
frame 2 | Written by MDAnalysis XYZWriter (release 2.4.3)
       H    15.30879    9.74034   18.34550
       O    15.57546   10.07209   19.20905
      H1    16.41906   10.55746   18.95043
       H    16.94532   12.89255    5.06842
       O    17.14651   13.68665    4.55603
      H1    17.49059   14.32478    5.21991
       H    14.22059   11.22037    5.69331
       O    14.93480   11.77291    5.91583
      H1    14.71459   12.63279    5.44514
       H    10.38038   14.50141   13.11683
       O    10.12015   13.91535   12.33224
      H1     9.20924   14.18718   12.32776
       H     9.88703   11.54616   12.01687
       O     9.49676   10.68609   12.12288
      H1    10.16606   10.04584   11.81336
       H    16.60139    9.84861    7.34894
       O    16.41002    9.24024    6.61536
      H1    16.40968    8.39762    7.04326
       H    13.31952    6.64458   11.77573
       O    13.98027    6.19257   11.27462
      H1    14.75530    6.29309   11.83113
       H    17.17572    6.32725   13.42363
       O    16.62792    6.31850   14.20371
      H1    16.65345    5.41467   14.50766
       H    17.85446   11.72679   11.68247
       O    17.93064   11.56574   12.66457
      H1    17.63252   10.63417   12.62113
       H    13.84017    8.60837   17.97928
       O    14.22965    9.06786   17.17039
      H1    13.54059    9.74055   16.86472
       H    17.51898   15.78131   11.98537
       O    17.40760   15.44920   11.07401
      H1    17.38536   16.23159   10.47930
       H    14.25727    9.78428   14.96749
       O    14.81328    9.62394   14.11424
      H1    15.18734    8.80326   14.35452
       H    13.82525   12.88247   11.72391
       O    14.01051   12.80622   10.79677
      H1    14.98557   12.69192   10.83816
       H    19.28506   14.22114    6.39937
       O    18.79450   15.05353    6.60201
      H1    19.23922   15.80187    6.26422
       H    14.22161    6.22658   16.17974
       O    13.82158    5.35189   16.13086
      H1    13.45048    5.29470   17.03008
       H    13.29697   10.11221   11.33111
       O    12.53794    9.74448   10.86167
      H1    12.84942    9.56339    9.92940
       H    10.62755   15.63300   11.31741
       O    10.72701   16.58898   11.49754
      H1    10.45250   16.80554   12.44627
       H    18.44971    7.01790   18.25448
       O    18.55677    6.58617   19.12902
      H1    18.67112    5.62598   18.96723
       H    11.39314   15.11150   15.09119
       O    11.64253   15.10661   14.09298
      H1    11.47308   15.99410   13.79407
       H    19.22269   13.91702   19.42506
       O    18.47285   13.34213   19.66965
      H1    18.18475   12.78224   18.85907
       H    19.76951    6.54165   15.03536
       O    19.31224    7.39581   14.92286
      H1    18.46498    7.08415   14.58614
       H    18.77839    7.11376    5.00662
       O    19.50395    6.53241    5.30660
      H1    19.03132    5.68419    5.18145
       H    12.24281    7.18990    9.23223
       O    12.98158    6.70320    8.79284
      H1    13.33666    6.15556    9.56427
       H    17.44520   18.76026   10.53784
       O    18.17721   18.89799    9.88221
      H1    17.93330   19.76365    9.45287
       H    18.44234   15.99954   13.91784
       O    17.74383   16.61994   13.76952
      H1    16.99235   15.97084   13.76887
       H    17.98787   16.17059   18.10051
       O    18.92603   16.06211   17.83392
      H1    19.32174   16.53668   18.61001
       H    13.11191    8.63692   13.65453
       O    12.56920    7.95560   13.23832
      H1    12.51800    8.39047   12.36626
       H    17.60888   13.28784   16.18764
       O    17.50766   13.87761   16.99523
      H1    18.10918   14.60970   16.79566
       H    18.25375   10.49678   17.76957
       O    17.69095   11.15756   18.24433
      H1    17.18138   11.47728   17.48660
       H    13.13963    8.47016    5.73779
       O    13.65586    9.24104    5.84501
      H1    14.54775    8.88842    5.90948
       H    16.22083   19.14123   12.54320
       O    15.90453   18.68239   11.75466
      H1    14.98888   18.93804   11.77558
       H    14.09961   14.67768   10.53173
       O    14.41445   15.55890   10.76746
      H1    15.38490   15.40187   10.71525
       H    13.29209   11.43922   15.92652
       O    12.81556   10.61752   15.69565
      H1    11.85488   10.75786   15.97996
       H    13.95450   18.63614    8.83275
       O    14.56900   18.94200    8.14395
      H1    15.38123   18.73345    8.54915
       H    19.45963    8.59708   16.54588
       O    18.98325    8.99741   17.25380
      H1    19.57423    9.10240   17.95662
       H    13.37702   12.04339   18.54460
       O    13.15008   11.29893   19.10163
      H1    13.96217   10.71287   19.22452
       H    17.28211   13.53979   10.43612
       O    16.98249   12.61021   10.37866
      H1    17.09265   12.40456    9.44146
       H    16.22292   10.80745   15.30559
       O    16.68575   11.66028   15.39793
      H1    17.01087   11.67938   14.50811
       H    19.67217   18.80514    7.90001
       O    19.68066   19.42708    7.17013
      H1    18.68475   19.45536    7.01829
       H    14.69913    6.36851    6.21460
       O    15.14534    6.48252    7.09101
      H1    14.43081    6.80570    7.60487
       H    14.08268   16.70488    5.59149
       O    14.71726   15.97420    5.79926
      H1    14.30197   15.35765    5.17294
       H    16.41174   18.65389   16.04280
       O    15.46257   18.69347   16.07344
      H1    15.26843   19.46719   15.52672
       H    13.30794   17.18905   10.28165
       O    12.70146   17.79395    9.75642
      H1    12.24449   17.27357    9.10535
       H    12.90949   13.48373   13.94760
       O    13.15138   12.71496   13.35439
      H1    13.92481   12.33001   13.85621
       H    14.55182   15.04243    7.27951
       O    14.60772   14.30647    7.90019
      H1    14.42283   14.74602    8.72485
       H    14.14793   11.19825    7.94950
       O    13.45480   10.53353    8.25340
      H1    13.40923    9.90068    7.49217
       H    12.48099   12.06970    7.78342
       O    12.43224   12.85138    7.20078
      H1    13.14250   13.38182    7.57982
       H    18.86423    5.94217   10.87542
       O    18.07240    5.68083   11.40975
      H1    18.30458    4.69641   11.57340
       H    12.92943   13.31951    5.18985
       O    13.37068   13.99451    4.65597
      H1    12.72907   14.31835    3.98491
       H    16.40115   12.24663    6.93631
       O    17.10494   12.54257    7.58179
      H1    16.79970   13.45496    7.86503
       H    14.25272   13.29928   16.91973
       O    14.27207   12.94108   16.01341
      H1    15.20702   12.67313   16.02508
       H    14.72084   15.16231   13.03914
       O    15.41901   15.14703   13.72274
      H1    14.95750   15.16970   14.56028
       H    18.55206    7.76539    7.99940
       O    19.27931    8.27975    7.59099
      H1    19.38705    7.77899    6.75534
       H    18.14612    4.90073    8.44964
       O    18.27445    3.90510    8.44837
      H1    19.03073    3.79898    9.04977
       H    17.93129   16.98993    8.67502
       O    17.15256   16.45645    8.40773
      H1    17.48454   15.94481    7.64264
       H    17.45169    6.11404    9.69667
       O    17.39176    6.45071    8.83115
      H1    16.46932    6.18745    8.54723
       H    17.98116   17.67478   15.33447
       O    18.18295   18.19745   16.12872
      H1    18.26104   17.49035   16.82621
       H    11.08650   12.94255   10.50143
       O    10.88089   12.04409   10.16780
      H1    11.66932   11.57065   10.33189
       H    17.17493    9.16584    5.06538
       O    17.53165    8.75543    4.21611
      H1    18.47355    9.05413    4.21956
       H    18.51297    8.16083   11.98748
       O    17.63140    8.37946   12.25575
      H1    16.99661    7.98990   11.70328

