180
frame 7 | Written by MDAnalysis XYZWriter (release 2.4.3)
       H    -0.24946    0.35215    6.28193
       O     0.00597    0.27475    5.32188
      H1    -0.63816   -0.32700    4.95529
       H    -2.30080   -3.71256   -0.03393
       O    -2.63850   -4.48666    0.46414
      H1    -3.47625   -4.10460    0.88615
       H     6.30577   -4.22960   -3.30526
       O     5.99119   -5.06000   -2.85351
      H1     5.09331   -4.89702   -3.03715
       H     0.05430   -0.22092    0.06064
       O    -0.68651   -0.68166    0.48848
      H1    -1.33764   -0.45156   -0.17683
       H    -3.10833   -5.40515    4.83944
       O    -3.98653   -4.95053    4.77384
      H1    -4.43111   -5.20696    5.61664
       H     5.52057   -2.42678    2.88570
       O     4.81938   -2.77083    2.29242
      H1     5.17201   -2.42968    1.43873
       H    -3.30614   -8.27456   -2.13700
       O    -2.50600   -7.91960   -2.46110
      H1    -2.79254   -7.04693   -2.82054
       H     0.35387   -3.10198   -7.30935
       O     0.95075   -3.12633   -6.55444
      H1     1.16923   -4.10683   -6.63357
       H    -2.83472    0.72788   -4.25623
       O    -2.44930    0.21072   -3.52665
      H1    -1.60390    0.68902   -3.35466
       H     0.59729   -6.13492   -0.78909
       O     1.23333   -5.45211   -0.84669
      H1     0.61002   -4.71600   -0.76813
       H    -5.02850   -5.28781   -1.89827
       O    -4.88880   -4.95274   -0.97205
      H1    -3.87736   -4.88185   -0.97410
       H    -3.19860   -0.15353   -1.81629
       O    -3.20149   -0.55031   -0.94970
      H1    -3.88916    0.00342   -0.52539
       H     2.45103   -5.26695   -2.43049
       O     3.19186   -4.74367   -2.73406
      H1     3.22062   -4.04658   -2.07936
       H     2.96659   -3.15368    3.72214
       O     2.27208   -2.73459    4.22845
      H1     2.24633   -3.13207    5.10314
       H     3.64246   -1.52268   -0.90844
       O     3.67340   -2.50275   -1.01367
      H1     4.67710   -2.58791   -1.12136
       H    -6.59204   -1.45472    3.31482
       O    -5.83464   -1.49846    2.68338
      H1    -6.26536   -1.70198    1.88707
       H     3.32131   -7.46837    2.84276
       O     4.00837   -8.04058    3.25174
      H1     3.82760   -7.73377    4.19812
       H     2.92907   -5.52923   -4.91642
       O     2.25787   -5.52305   -5.61109
      H1     1.52677   -5.96525   -5.13890
       H    -6.07104   -6.15913    0.09849
       O    -6.69178   -6.86126    0.47747
      H1    -7.09326   -6.21954    1.13096
       H     5.02641   -5.66585    2.15376
       O     5.84793   -5.22924    2.47081
      H1     5.69462   -4.30488    2.26290
       H    -4.92300   -3.02561    2.66575
       O    -4.58192   -3.85799    2.34569
      H1    -4.41364   -4.40890    3.15624
       H    -1.78135   -7.26209   -0.92558
       O    -1.05673   -6.86192   -0.50141
      H1    -1.55028   -6.16871   -0.06652
       H    -7.06688   -3.36914    0.92382
       O    -7.45516   -2.58407    0.51658
      H1    -6.78460   -2.49379   -0.18874
       H     0.96762   -8.87680    0.00569
       O     1.16005   -9.43779   -0.81571
      H1     1.77868  -10.07643   -0.39482
       H     0.10767   -9.24002   -2.18193
       O    -0.28254   -9.25757   -3.10437
      H1    -1.12856   -8.88208   -2.88799
       H     5.42903   -6.36116   -1.55185
       O     4.98861   -6.97890   -0.89328
      H1     4.57415   -6.30271   -0.33798
       H    -2.80900   -1.66662   -3.95275
       O    -3.00548   -2.57206   -4.18845
      H1    -4.00953   -2.45105   -4.27326
       H     2.91066    0.21239   -4.58655
       O     3.73528    0.78934   -4.66252
      H1     3.44124    1.59153   -4.16012
       H    -2.69554   -0.58425    3.91939
       O    -2.02134   -1.18275    4.21957
      H1    -2.16380   -1.96591    3.66606
       H    -6.51540    0.09124   -2.57678
       O    -6.18152   -0.50074   -3.28199
      H1    -5.68184   -1.22624   -2.82955
       H    -1.51886   -2.93154   -7.53703
       O    -0.90209   -2.66688   -8.30054
      H1    -0.94239   -1.71298   -8.29688
       H     1.71718    2.23058    4.10573
       O     1.45178    2.57970    3.25228
      H1     1.18764    1.75933    2.76341
       H     0.20258   -0.71683    2.10648
       O     0.91052   -0.23823    2.58605
      H1     0.78446   -0.50394    3.50053
       H    -0.42063    3.46832   -1.19376
       O    -0.45340    4.45560   -1.11448
      H1     0.49520    4.55767   -1.10551
       H    -0.79469   -3.78201    2.70574
       O    -1.77835   -3.76734    2.83029
      H1    -2.06184   -3.87842    1.88877
       H     2.92516    3.31871   -1.92988
       O     2.49401    3.29895   -0.99491
      H1     1.88065    2.53675   -1.05306
       H    -3.06297    2.16917    3.86782
       O    -3.36948    1.21540    3.74217
      H1    -4.29525    1.29115    4.18624
       H    -4.54784   -1.71873   -1.18295
       O    -5.22608   -2.37689   -1.30913
      H1    -4.82614   -3.20390   -1.03150
       H     7.17645   -2.47891   -0.80399
       O     6.50823   -2.93529   -0.28168
      H1     6.59014   -3.84608   -0.54585
       H    -2.17152   -3.83984   -5.64659
       O    -1.91671   -4.56114   -6.23398
      H1    -1.34026   -5.06347   -5.66323
       H    -3.22509   -5.74766   -6.13334
       O    -4.15973   -6.08338   -6.05978
      H1    -4.61980   -5.28709   -5.86069
       H    -1.85697   -4.45645   -2.91977
       O    -2.60370   -5.02655   -3.18302
      H1    -3.18158   -4.35850   -3.56050
       H    -0.52790   -7.18732   -5.99256
       O    -0.24726   -6.76724   -5.13292
      H1    -0.38313   -7.48514   -4.46456
       H     0.84421   -4.67288    3.25087
       O     0.91335   -4.09819    2.49022
      H1     1.48556   -3.38883    2.75748
       H     1.10401   -1.34877   -4.49741
       O     1.32975   -0.48886   -4.92443
      H1     1.15247   -0.67655   -5.88116
       H     1.96492   -3.66194   -3.61561
       O     1.05931   -3.35423   -3.66603
      H1     1.00820   -3.34291   -4.66296
       H     2.57589   -5.43923    0.43803
       O     3.17378   -5.45728    1.21901
      H1     2.54621   -5.18647    1.91229
       H     3.95401   -1.07137    2.26451
       O     3.47232   -0.23457    1.97476
      H1     2.61683   -0.26344    2.45603
       H     3.53983   -8.22647   -1.91643
       O     3.48100   -8.90363   -2.63435
      H1     2.55907   -9.18194   -2.54390
       H    -3.40992   -3.41315    5.91801
       O    -3.24026   -2.55357    6.36386
      H1    -2.72536   -2.14798    5.59689
       H     0.20260    0.92931   -4.37155
       O    -0.00540    1.61298   -3.65239
      H1    -0.06587    2.41219   -4.19707
       H     3.37069   -0.23599    0.43442
       O     3.11892    0.09329   -0.53921
      H1     3.95533    0.64327   -0.65730
       H     0.63252   -4.76748    5.51160
       O     0.84399   -5.43186    4.70555
      H1     0.28774   -6.17339    4.91277
       H    -6.55773   -6.46005   -3.45632
       O    -5.63787   -6.10321   -3.35263
      H1    -5.36293   -5.99996   -4.27121
       H    -5.25397   -0.02143    1.79958
       O    -4.94582    0.58316    1.09345
      H1    -4.10580    0.80744    1.48566
       H     0.71016    1.12151   -1.96237
       O     0.77921    1.11090   -1.00787
      H1     1.66208    0.76611   -0.86211
       H    -1.02390   -7.24314    2.94494
       O    -1.59448   -6.70337    3.41797
      H1    -1.73485   -5.89103    2.96013
       H    -5.28381   -3.24307   -6.20239
       O    -5.41832   -3.56594   -5.29560
      H1    -6.36177   -3.43494   -5.16983
       H    -0.37337   -8.89854    2.06316
       O    -0.03781   -8.07090    1.65935
      H1    -0.60270   -7.88139    0.91036
       H     0.41175   -2.91982   -1.54839
       O    -0.31140   -3.03439   -0.91761
      H1    -0.21127   -2.39883   -0.23249

