180
frame 11 | Written by MDAnalysis XYZWriter (release 2.4.3)
       H    -4.41663    5.70304   12.34061
       O    -3.54405    6.01100   12.62558
      H1    -3.41234    6.69015   11.93448
       H    -3.40646   14.67028    8.21472
       O    -3.77734   15.17133    7.49437
      H1    -2.96240   15.31785    6.97319
       H    -0.20441   10.60591   11.26721
       O     0.07761   11.24911   10.58226
      H1     0.85822   10.79992   10.15765
       H    -3.97261   11.86968   13.63231
       O    -3.30849   11.44449   13.06589
      H1    -2.80477   12.22302   12.73925
       H    -3.34903   17.50664   11.21545
       O    -3.90607   17.40673   12.00144
      H1    -3.91714   16.51143   12.27359
       H    -6.71664    9.18171    7.98052
       O    -5.94545    9.48100    7.53519
      H1    -5.84487   10.38033    7.87154
       H    -2.83849    8.38497    6.77408
       O    -2.83750    8.31925    5.80712
      H1    -2.60713    7.40797    5.66698
       H    -2.12076   11.42777    7.52211
       O    -2.24771   11.51530    8.44873
      H1    -1.31674   11.69010    8.73748
       H    -5.38305    5.70819    9.87669
       O    -4.78230    5.19316    9.32731
      H1    -4.34877    4.56878    9.92643
       H    -4.47091   13.70827    6.40360
       O    -4.63160   12.79858    6.06475
      H1    -5.39069   12.54873    6.59737
       H    -6.00118   17.32800    7.77307
       O    -5.87202   16.56974    8.42661
      H1    -5.18955   16.04741    7.90473
       H    -5.11738   14.52807   12.69388
       O    -4.53665   14.62410   13.45424
      H1    -5.17906   14.85236   14.22894
       H    -8.67417    9.20648   10.17042
       O    -8.28287    9.36146   10.96170
      H1    -9.08433    9.13928   11.49434
       H    -0.07365   12.78697    4.32365
       O     0.15684   12.48988    5.21278
      H1    -0.64537   12.07570    5.48244
       H   -11.75352   13.49976    8.33941
       O   -10.91689   13.79806    8.74697
      H1   -11.06020   13.48990    9.65293
       H    -9.54525   12.56926   13.49025
       O    -9.87140   13.21438   14.14167
      H1   -10.10942   12.53950   14.79817
       H    -6.03278   10.85821   14.84375
       O    -5.80722   10.12488   15.51257
      H1    -5.84189    9.38101   14.87449
       H    -8.27465    7.25579   13.58004
       O    -8.59889    7.56119   14.45590
      H1    -7.99826    7.00746   14.99282
       H   -10.47362   11.18694    8.45668
       O   -10.75657   10.31251    8.73184
      H1   -10.92577    9.83669    7.89007
       H    -9.91480   10.90887   16.44873
       O    -9.99335   10.87309   15.46572
      H1    -9.17146   10.33210   15.33688
       H    -0.02996    9.27832   14.82802
       O     0.48145    9.07024   15.65536
      H1     1.27616    8.63240   15.27645
       H    -4.43804    8.62197    4.76041
       O    -5.37277    8.89431    4.71921
      H1    -5.58498    9.11896    5.65254
       H    -6.92207   14.56473   11.07782
       O    -5.95178   14.41101   11.03175
      H1    -5.59585   15.13273   10.47366
       H   -11.64136    7.26678    9.88518
       O   -12.07833    8.11817    9.75771
      H1   -11.40942    8.78149    9.58270
       H    -6.34065   14.41661   16.04969
       O    -7.31836   14.23210   15.92631
      H1    -7.58551   14.72779   15.14692
       H    -1.73807   14.22149    4.92250
       O    -1.52942   14.68789    5.78583
      H1    -0.61598   14.47655    6.01469
       H     1.14158    9.46173    8.18333
       O     1.36588   10.36026    7.93546
      H1     1.56109   10.27859    7.03834
       H    -2.29738   13.66734   15.91527
       O    -1.41635   13.79021   16.32881
      H1    -1.09290   12.90019   16.23590
       H    -1.62596    9.30673   12.71638
       O    -0.75384    9.63880   12.81553
      H1    -0.37967    8.89891   12.35876
       H    -8.38385   11.24269   11.54006
       O    -8.37773   11.92589   12.25628
      H1    -8.61388   12.77518   11.81178
       H    -4.81792   14.61067   17.34883
       O    -4.85181   14.98388   16.41544
      H1    -4.34296   15.80494   16.61807
       H   -11.84312   12.35959   11.79101
       O   -12.30033   12.74388   11.01080
      H1   -12.89806   12.06614   10.72323
       H    -7.09973   13.18630    7.94289
       O    -6.74589   12.29696    8.00324
      H1    -6.29257   12.32624    8.89922
       H    -4.06857    8.82187   11.25494
       O    -3.23304    8.34851   11.01800
      H1    -3.08876    8.50478   10.08878
       H    -4.57551   11.19269   11.48877
       O    -5.05620   11.46935   10.70995
      H1    -5.21168   12.39319   10.90257
       H    -6.92177   12.86082   14.66037
       O    -6.37960   12.31029   14.06088
      H1    -7.05027   12.18976   13.31838
       H    -8.61488   14.67898   12.29188
       O    -8.59879   14.43813   11.37140
      H1    -9.34314   14.95042   10.95516
       H    -2.95375   12.97570    9.39285
       O    -3.13887   13.82796    9.74512
      H1    -2.83439   13.90786   10.65689
       H    -4.16646   18.05389    9.16126
       O    -3.27344   18.32922    9.34002
      H1    -3.33842   19.30155    9.35162
       H   -10.40879   12.99842    7.07671
       O   -10.55798   12.46873    6.28569
      H1   -10.30868   13.00551    5.51548
       H    -5.41524   12.95078    4.45944
       O    -5.87523   13.07934    3.59041
      H1    -6.48669   13.81287    3.82864
       H    -7.74373    7.38975    7.33405
       O    -8.07822    7.85959    8.09759
      H1    -8.32515    7.12586    8.68939
       H    -4.39342    7.06920   15.03957
       O    -5.14049    7.20564   14.41889
      H1    -4.79598    6.83379   13.55702
       H     1.47090   14.12408   11.57758
       O     0.53732   14.10607   11.66771
      H1     0.32149   13.31033   11.24606
       H    -2.51900   14.33372   13.35039
       O    -1.99236   13.77951   12.73860
      H1    -1.12953   14.25448   12.63009
       H    -0.04491    6.89420    9.09453
       O     0.66751    7.53566    8.77463
      H1     1.48023    6.96311    8.79148
       H    -0.45547   16.26730    9.57776
       O     0.17911   16.91893    9.45122
      H1     0.33277   16.92445    8.46255
       H    -7.15502   15.38533    8.16372
       O    -7.76179   14.69711    8.06085
      H1    -8.40317   14.75652    8.80008
       H    -2.64884    6.79831   16.70301
       O    -2.63553    7.36278   15.91491
      H1    -2.98450    8.12726   16.42600
       H    -2.83994    9.87754    8.52634
       O    -3.24131    8.94267    8.54068
      H1    -4.20511    9.03648    8.62126
       H    -7.02891   16.41094   13.94491
       O    -7.60385   15.69240   13.61902
      H1    -8.49208   15.91152   14.00897
       H    -7.71898    7.58735   11.55732
       O    -7.35676    6.85027   12.06460
      H1    -7.65982    6.10361   11.56297
       H    -1.87923    5.22598   10.00288
       O    -1.29638    5.98701    9.85343
      H1    -1.31916    6.42250   10.74513
       H   -10.38893    8.92098    6.17868
       O   -10.50784    8.26677    6.88831
      H1    -9.63165    8.10947    7.29132
       H    -1.96056   11.04019   14.35609
       O    -1.81295   11.31260   15.24270
      H1    -0.84925   11.38660   15.33041
       H    -2.86830   10.41449   16.20577
       O    -3.32635    9.73666   16.84694
      H1    -4.21313    9.90209   16.43558
       H    -7.06444   16.82462   12.27689
       O    -6.60195   17.19630   11.48156
      H1    -5.71365   17.26959   11.87996
       H   -11.19895    8.36548   12.91681
       O   -10.91736    8.98978   12.26820
      H1   -11.23125    9.80796   12.71795
       H    -3.15954   11.74560    5.69069
       O    -2.25722   11.30996    5.69133
      H1    -2.50678   10.45110    5.95763
       H     1.01156    7.00978   11.93413
       O     0.20481    7.49257   11.47076
      H1     0.62392    7.82292   10.65655

