180
frame 5 | Written by MDAnalysis XYZWriter (release 2.4.3)
       H   -16.13723   -6.98661   -2.95326
       O   -16.26958   -6.40641   -3.74815
      H1   -16.18124   -7.00519   -4.52440
       H   -11.81427   -7.32667   -2.03211
       O   -11.66379   -8.26244   -2.09072
      H1   -10.81231   -8.28264   -2.57197
       H   -16.68966   -5.84641    0.59417
       O   -16.12184   -5.57283    1.35057
      H1   -15.71070   -6.35996    1.63154
       H    -7.34699  -12.15398    2.64950
       O    -7.47397  -12.80044    1.90358
      H1    -7.29050  -13.67309    2.37856
       H    -8.83129   -9.00466    1.39578
       O    -9.21677   -9.48325    2.13941
      H1    -9.18323   -8.83615    2.79838
       H   -11.97043  -13.89656    1.45215
       O   -12.52402  -13.34564    2.07381
      H1   -11.89785  -12.77526    2.56128
       H    -7.86573  -10.33181    3.35074
       O    -7.07052  -10.86798    3.56797
      H1    -6.89833  -10.73390    4.53438
       H    -9.54551  -14.19000    4.25112
       O    -8.81406  -13.55126    4.20336
      H1    -9.13736  -12.98042    3.48055
       H    -7.78412  -10.22136   -2.83026
       O    -7.17539  -10.95177   -2.84950
      H1    -7.11558  -11.16767   -1.88323
       H   -11.11471  -11.89870   -2.16108
       O   -11.16168  -12.76161   -2.60249
      H1   -11.99605  -13.13661   -2.17342
       H   -12.78586   -3.26090    0.73740
       O   -11.96784   -3.79778    0.78280
      H1   -11.94842   -4.08716    1.69956
       H   -13.30268   -6.79026    4.40274
       O   -13.78668   -5.94660    4.21452
      H1   -14.50641   -6.04803    4.87046
       H   -10.25944  -14.28814   -2.37779
       O   -10.26099  -15.22708   -2.59123
      H1   -10.23436  -15.60606   -1.70976
       H   -18.01761  -13.60756   -2.47897
       O   -17.79346  -13.92070   -1.55904
      H1   -18.48096  -13.55832   -1.02563
       H    -9.30023   -8.76718    5.51559
       O    -9.61457   -8.33842    4.73362
      H1   -10.56150   -8.38044    4.70774
       H   -12.89599  -10.75275    0.02144
       O   -13.83582  -10.73947    0.26120
      H1   -14.36918  -11.00432   -0.47983
       H   -13.38603   -8.51309   -3.70818
       O   -13.66407   -8.83402   -4.58823
      H1   -14.49406   -8.42086   -4.85658
       H   -16.31960   -8.67789    1.89261
       O   -15.91881   -8.50199    1.01059
      H1   -15.28191   -9.24996    0.90918
       H   -11.61737  -15.37728    3.62610
       O   -10.96367  -15.19921    4.30485
      H1   -11.33160  -15.43571    5.18706
       H   -18.95820  -12.71567   -4.78862
       O   -18.12613  -12.78102   -4.23332
      H1   -18.09254  -11.95673   -3.82499
       H   -15.59393   -4.23874    0.64924
       O   -15.10202   -3.54856    0.25952
      H1   -15.29135   -2.72506    0.81349
       H   -16.25427   -9.56648    6.49989
       O   -15.34325   -9.26863    6.22516
      H1   -15.13356  -10.11322    5.78112
       H   -15.23721  -13.01087   -0.38925
       O   -15.31076  -12.76086   -1.29896
      H1   -16.20553  -13.09965   -1.49013
       H    -9.03048   -7.48312   -3.01371
       O    -8.98932   -8.46280   -2.98696
      H1    -9.22321   -8.56474   -3.92634
       H   -11.52342  -12.68379   -4.28409
       O   -11.87560  -12.96740   -5.14247
      H1   -12.66589  -12.41398   -5.14323
       H   -16.60890  -16.33452   -2.50288
       O   -17.09215  -16.92011   -3.09835
      H1   -16.79353  -17.82135   -2.98046
       H   -19.51188  -10.31709    0.23883
       O   -18.92273  -10.97353   -0.22584
      H1   -19.22431  -10.82847   -1.11188
       H   -11.74336   -9.42262   -5.21392
       O   -10.84613   -9.09527   -5.20126
      H1   -10.46340   -9.61143   -5.92652
       H   -10.00864  -10.93236    3.32896
       O   -10.54233  -11.75883    3.47172
      H1   -10.14034  -12.03601    4.33519
       H   -10.49989   -5.49700   -2.42186
       O    -9.63024   -5.86875   -2.60604
      H1    -9.17978   -5.68408   -1.73789
       H   -17.52154  -11.11932    1.21412
       O   -16.82799  -11.35834    1.86073
      H1   -17.21580  -11.60084    2.69226
       H   -10.18396  -10.39693   -0.32624
       O   -11.05033  -10.39269   -0.73724
      H1   -11.11239   -9.51525   -1.17148
       H   -14.37984   -7.81735    6.67686
       O   -13.46424   -7.50049    6.94274
      H1   -13.68543   -6.58477    7.14868
       H   -18.10044   -5.98783    3.31089
       O   -18.70014   -6.34760    2.57956
      H1   -17.97732   -6.78294    2.12114
       H   -13.94499  -15.02566    2.43867
       O   -14.12772  -15.65670    3.10953
      H1   -14.46832  -15.02021    3.79678
       H   -13.38443  -14.13039   -3.71890
       O   -13.47432  -14.07227   -2.74273
      H1   -14.17558  -13.36209   -2.66595
       H   -12.93507  -11.58124    5.69845
       O   -13.29767  -12.47358    5.49675
      H1   -12.64511  -12.99328    5.06128
       H   -14.87156  -15.28914   -1.50753
       O   -15.45440  -15.99377   -1.15399
      H1   -16.07888  -15.41022   -0.72632
       H   -14.67786  -13.59934    5.33875
       O   -15.47072  -14.08528    5.08355
      H1   -16.19156  -13.42228    4.95090
       H   -10.89451   -8.17242    1.30793
       O   -11.23557   -7.28306    1.29747
      H1   -11.67582   -7.16178    0.44255
       H    -7.47970   -8.42928   -0.48543
       O    -7.73783   -9.28890   -0.15649
      H1    -6.83503   -9.73584   -0.14302
       H   -17.78658   -7.04270   -1.49862
       O   -17.05740   -6.82632   -0.91205
      H1   -16.88828   -7.72541   -0.53462
       H   -11.34889   -6.10479    2.63852
       O   -11.29763   -5.29824    3.21818
      H1   -12.17710   -5.35929    3.62208
       H   -17.91973   -8.74960    3.93552
       O   -16.97180   -8.79694    3.58554
      H1   -16.38108   -8.44868    4.25486
       H   -18.99250   -8.78996   -2.95330
       O   -19.07714   -8.16016   -2.16209
      H1   -19.60452   -7.38070   -2.48805
       H   -13.03118  -17.53036    0.26371
       O   -12.24786  -17.26604    0.71428
      H1   -11.95268  -18.11258    1.18752
       H   -13.06763   -5.38247   -1.31528
       O   -12.13533   -5.40276   -1.27946
      H1   -11.97571   -4.81844   -0.47758
       H   -10.88481  -16.28687    0.19738
       O   -10.02139  -15.78932    0.01665
      H1    -9.49445  -16.06062    0.74806
       H   -17.87494  -13.53607    3.79670
       O   -17.54703  -12.67880    4.14879
      H1   -18.13377  -12.55651    4.96229
       H   -12.61869   -9.04358    4.94006
       O   -12.45708   -8.52985    4.15176
      H1   -13.15836   -8.94481    3.60680
       H   -13.86816  -11.27969    3.34457
       O   -14.27936  -10.38484    3.30930
      H1   -14.85531  -10.51020    2.53740
       H   -15.35484  -10.85178   -3.84004
       O   -16.19930  -10.71798   -3.37829
      H1   -16.07492  -11.12308   -2.51339
       H   -14.83561  -11.40012   -6.69242
       O   -13.96740  -11.39798   -6.33549
      H1   -13.97743  -10.45440   -5.94620
       H   -12.32994   -9.91400    7.29572
       O   -11.95989  -10.40105    6.55636
      H1   -11.46297  -11.08711    6.96767
       H   -15.64521  -16.82937    2.95867
       O   -16.51823  -17.33863    2.92893
      H1   -16.67249  -17.15365    3.84824
       H   -14.59740  -13.22922    1.30274
       O   -15.45132  -13.68329    1.22879
      H1   -16.00747  -13.09723    1.71948
       H   -17.46900  -15.85186    2.53314
       O   -18.21579  -15.23036    2.73744
      H1   -18.83174  -15.85605    3.30047
       H   -16.56377   -8.78150   -5.92235
       O   -15.90562   -8.06090   -5.85642
      H1   -16.21270   -7.41822   -6.46762
       H   -13.19282  -16.04240   -3.53667
       O   -12.57839  -16.57645   -3.99182
      H1   -11.72438  -16.26379   -3.74282
       H   -16.28213  -13.03674   -4.90922
       O   -15.32715  -13.23086   -4.81901
      H1   -15.21581  -13.53514   -5.71869

