180
frame 10 | Written by MDAnalysis XYZWriter (release 2.4.3)
       H     9.82434    8.22666    1.85190
       O     9.57068    7.87706    2.69927
      H1     9.87244    8.53630    3.32231
       H     9.76934   13.37976   -6.22581
       O    10.20782   14.18422   -6.11803
      H1     9.56185   14.66537   -5.52136
       H     6.36351   16.89600    2.06418
       O     6.55184   15.93466    2.08483
      H1     7.53415   15.96091    2.31138
       H    11.91901   14.73926   -0.87126
       O    11.16510   14.76665   -0.29753
      H1    10.69122   15.57202   -0.61679
       H    16.68333   11.77395    0.45060
       O    17.47748   11.57241    0.01913
      H1    18.10319   11.60562    0.77206
       H     9.60930    9.83255    5.28965
       O    10.02996    9.08031    5.63542
      H1     9.37669    8.32205    5.66024
       H     3.81976   12.27460   -2.93521
       O     4.65800   11.70118   -3.04549
      H1     4.65593   11.52215   -4.02127
       H    15.37007   10.07002   -2.32758
       O    16.11756    9.47522   -2.55729
      H1    16.73115   10.00748   -3.03043
       H     8.47231   16.18270    0.79866
       O     8.55996   16.45526   -0.18550
      H1     7.66499   16.87388   -0.25378
       H     9.67116   11.58315    0.84970
       O     8.99399   11.85685    0.29064
      H1     9.11441   12.78282    0.07685
       H     3.18154   14.11178    1.30838
       O     3.00941   13.62708    2.14668
      H1     3.87541   13.25183    2.41298
       H    13.82659   15.12845   -2.63169
       O    13.37757   14.30783   -2.43071
      H1    12.96881   14.09402   -3.29403
       H    10.62090   11.53512   -2.55124
       O    11.49676   11.76694   -2.87991
      H1    12.04725   11.80965   -2.11238
       H     7.97028    5.92496    0.41187
       O     7.88232    4.98973    0.77329
      H1     7.20309    4.69863    0.16595
       H     5.70466   10.25349   -0.78983
       O     5.99583    9.79894   -1.65053
      H1     5.75480   10.50892   -2.24576
       H    14.22394   12.29711    0.29240
       O    14.79497   13.12240    0.49890
      H1    15.23065   13.24826   -0.34121
       H    12.16372    9.31102   -4.15094
       O    12.51206    8.49263   -3.73367
      H1    12.77331    8.75341   -2.84870
       H     8.45763   14.21949   -2.43661
       O     8.02793   15.08367   -2.41782
      H1     8.36543   15.56860   -1.64750
       H     4.33600   11.07502    0.86812
       O     3.43008   11.33394    0.57671
      H1     3.38523   12.25586    0.95467
       H    12.70328    6.72269    2.26407
       O    13.46031    6.94858    2.81082
      H1    13.89297    7.71735    2.39547
       H    14.22117   12.61770   -2.53440
       O    15.08050   12.13322   -2.66079
      H1    15.01525   11.66759   -3.55313
       H     8.90933   15.21746    3.41079
       O     9.31572   15.79546    2.67392
      H1     9.74564   16.41986    3.25281
       H    11.53199   13.47914   -5.20005
       O    12.39080   13.19726   -4.88288
      H1    12.27237   12.45864   -4.20224
       H    15.59624    8.72240    1.65271
       O    14.88800    9.35828    1.38306
      H1    14.67567    8.92890    0.56808
       H     7.95008    6.52527   -2.41735
       O     7.62865    5.63928   -2.70066
      H1     7.71148    5.68192   -3.66763
       H    11.60514   12.14959    2.17555
       O    11.71339   11.25720    1.81418
      H1    12.32423   10.85895    2.46239
       H     7.91080    6.86564    3.67088
       O     7.26696    6.12729    3.53342
      H1     7.69108    5.52066    2.91806
       H    14.51907   10.79656    5.00765
       O    14.98202   10.76424    5.93803
      H1    15.61662   10.06877    5.74126
       H     8.89261   13.80941    7.03817
       O     9.10263   14.75974    7.20316
      H1     8.39132   15.28599    6.86316
       H     8.76653   11.61164   -1.39616
       O     8.78818   12.07535   -2.27812
      H1     8.40917   11.40028   -2.82929
       H     9.09209   10.34349   -5.21032
       O     8.52582   10.09994   -4.47676
      H1     8.97927    9.28638   -4.17910
       H     5.96662   16.11684    6.67795
       O     6.86027   16.16873    6.27978
      H1     6.78021   15.56495    5.58385
       H    11.61957    5.36538    1.07918
       O    11.44158    6.30920    0.87222
      H1    10.66201    6.56396    1.36341
       H     9.88284   11.58198    7.79075
       O     9.17592   12.09662    7.26377
      H1     8.40893   11.53900    7.53491
       H     4.34658   14.76210   -3.08779
       O     5.05625   15.04808   -2.43552
      H1     5.64856   14.31310   -2.39188
       H    10.48643    6.37135   -2.67853
       O    10.24590    7.31485   -2.54336
      H1    11.02579    7.83768   -2.80238
       H    10.93952   17.74129    4.81750
       O    11.12106   17.38726    3.92542
      H1    11.17156   16.48347    4.19947
       H    12.54179   11.37415    0.39056
       O    12.89010   11.24499   -0.54187
      H1    12.74742   10.26711   -0.69740
       H     8.41038   13.17325    4.24551
       O     7.93007   13.94885    4.13783
      H1     7.23932   13.71448    3.53636
       H     4.16750   10.64005    4.36830
       O     4.97260   10.74827    4.87441
      H1     5.70101   10.44064    4.31430
       H     2.69889   15.09206   -0.81232
       O     3.47739   15.05269   -0.19995
      H1     4.15316   14.95358   -0.83577
       H    11.68120    8.75184    5.24424
       O    12.59970    8.53929    5.17195
      H1    12.55293    7.85699    4.47895
       H     6.83958   11.24606    0.97898
       O     5.94840   10.84052    1.13009
      H1     6.37121   10.01648    1.52113
       H    11.10424   14.43534    2.75736
       O    11.85514   13.86204    2.40519
      H1    11.76042   14.06066    1.43461
       H    13.31323    9.69748    4.08873
       O    13.54200   10.50895    3.62603
      H1    13.90971   10.18738    2.77632
       H     8.71466    7.66657   -1.67138
       O     7.95258    7.71659   -1.12597
      H1     7.67625    8.63580   -1.30457
       H     4.75907    8.29370   -1.35574
       O     4.22224    7.50982   -1.02350
      H1     4.23170    7.00035   -1.88339
       H    12.31238    7.71936   -0.71521
       O    13.03517    8.40150   -0.75050
      H1    13.78741    7.74811   -0.71931
       H     6.55708   14.65150    0.43650
       O     6.73493   13.80264    0.00118
      H1     7.20144   14.14877   -0.80509
       H     7.51327    7.35727    6.57932
       O     8.04368    6.81451    6.01112
      H1     7.47123    6.52206    5.25508
       H     4.88204   16.24307    3.41256
       O     3.93238   16.08575    3.45346
      H1     3.86795   15.20684    3.04745
       H    10.27489   14.74032    6.08867
       O    10.92907   14.68971    5.34013
      H1    11.69548   14.36454    5.79675
       H     6.47068    7.68482    2.64880
       O     6.24395    8.64045    2.72821
      H1     5.31649    8.50202    2.83717
       H    13.64195   14.12058    3.78598
       O    14.51859   14.23850    4.16024
      H1    15.11189   14.47099    3.41221
       H    11.93322   17.71526   -1.90802
       O    11.05761   17.50782   -2.21717
      H1    10.47291   18.20814   -1.89408
       H    10.36249   11.92922    4.06239
       O     9.55629   11.57618    4.39915
      H1     9.55515   11.96011    5.25387
       H     8.41557   15.92829   -3.89209
       O     8.96852   16.48427   -4.46714
      H1     9.82725   16.66578   -3.97099
       H     5.70836   11.90623    2.49470
       O     5.50883   12.70143    3.09677
      H1     5.45952   12.21366    4.00997
       H     6.67248   17.89733   -1.60021
       O     6.15023   17.49326   -0.88281
      H1     5.67140   16.86968   -1.51869
       H    10.64906   17.86502    1.98098
       O    10.68314   18.71882    1.46691
      H1    10.72952   19.39870    2.20046

