180
frame 7 | Written by MDAnalysis XYZWriter (release 2.4.3)
       H    16.94293    4.77323    5.29912
       O    16.35541    5.31925    4.73832
      H1    15.54216    4.74972    4.75832
       H    12.10194    4.94936    9.34284
       O    12.51057    4.56818    8.51239
      H1    12.42713    5.28991    7.87679
       H    17.78550   13.10702    3.34591
       O    17.31744   13.68630    3.95493
      H1    17.27083   13.05735    4.70525
       H    12.86289   14.55322   -0.22815
       O    12.64204   15.13251    0.50456
      H1    11.98894   15.68656    0.12294
       H    15.22987   11.36754    5.95271
       O    15.66974   12.23217    6.09107
      H1    15.15801   12.83033    5.49184
       H    19.36068   11.45763    1.49157
       O    19.19052   11.06920    0.62848
      H1    19.71296   10.28890    0.67554
       H    16.56169    7.95547    6.03124
       O    15.79615    7.92721    5.42357
      H1    15.78744    6.96883    5.22300
       H    13.70199    6.42923   10.50460
       O    14.40648    5.68943   10.50756
      H1    14.12356    5.14811    9.76193
       H     9.29643    8.69255    5.61864
       O    10.04480    8.12219    5.59813
      H1     9.97697    7.74199    6.48523
       H    14.64342    1.89385    0.27971
       O    15.17237    1.39600    0.85947
      H1    16.08555    1.38834    0.49462
       H    16.97525   10.22555   -1.65771
       O    17.32951    9.39693   -1.39061
      H1    18.24766    9.56206   -1.28652
       H    16.25386   14.78626    1.48141
       O    16.04057   15.42166    2.19321
      H1    16.29340   14.91691    3.00410
       H    16.56355    7.65963   -1.21115
       O    16.45689    6.67798   -1.13784
      H1    16.77453    6.57962   -0.23204
       H    17.52802    7.05404    2.35002
       O    17.67496    6.30372    1.78889
      H1    18.01500    5.69384    2.46442
       H    13.85409    4.55094   -1.29705
       O    13.67929    3.62725   -1.62693
      H1    12.68651    3.66290   -1.61641
       H    18.73062    0.62085    6.11459
       O    19.39500    1.32840    5.85345
      H1    19.88955    1.23425    6.70771
       H    11.31768   11.28162   -1.17569
       O    12.18359   11.29781   -1.54759
      H1    12.84129   11.43518   -0.82251
       H    15.92902   12.02297    0.69320
       O    16.71137   12.46699    0.28654
      H1    17.43156   11.93678    0.59830
       H    13.74520   10.63641   -3.18704
       O    14.14521    9.98049   -3.72600
      H1    14.48477    9.34746   -3.06015
       H    19.47974    7.17666    5.01682
       O    19.19572    6.55477    5.75316
      H1    19.05119    5.72706    5.30772
       H    13.23520    6.76300    2.92171
       O    14.05621    6.56115    3.35687
      H1    14.51917    7.42156    3.21930
       H    15.86959   12.25162   -1.16325
       O    15.39674   11.85662   -1.96403
      H1    14.84391   12.62946   -2.20590
       H    15.97354    2.34067    2.44335
       O    16.61038    2.77485    3.08406
      H1    16.24706    2.22138    3.82764
       H    15.43944    9.32112    2.11428
       O    14.56805    8.95045    1.94446
      H1    14.46031    8.99352    0.92358
       H    11.86198    4.87293    0.33599
       O    11.09269    5.19127    0.78647
      H1    11.26532    4.74161    1.63204
       H    11.45935    5.29539    4.63790
       O    11.37580    4.56777    4.01630
      H1    12.18424    4.05809    4.15529
       H    17.55856   12.20775   -4.36096
       O    17.61756   12.38021   -3.44317
      H1    16.76830   12.00283   -3.16163
       H    18.07308    4.01246    7.37004
       O    17.96246    3.89858    6.41885
      H1    18.51046    3.09304    6.23536
       H    10.65580   12.44009    2.81031
       O    10.11247   11.63490    2.90132
      H1    10.84738   10.98921    3.23521
       H    15.19166    4.03872    2.41089
       O    14.43100    4.38936    1.92978
      H1    14.36214    5.17135    2.49767
       H    13.44805    9.94904    5.09563
       O    13.96568   10.00714    5.90280
      H1    14.61747    9.31848    5.71909
       H    16.67565    3.85327   -2.62447
       O    17.59781    4.15119   -2.20565
      H1    18.15587    3.65134   -2.83070
       H    17.81625   15.54979   -2.44811
       O    16.98639   15.38844   -1.96905
      H1    17.28485   14.65663   -1.37214
       H    18.84511    3.52358    2.65763
       O    18.79066    4.25875    3.33005
      H1    17.89116    4.01310    3.65059
       H    11.39106    6.62723    1.76489
       O    11.66775    7.38958    2.36555
      H1    10.80767    7.81126    2.25468
       H    14.77619    6.14345   -0.52450
       O    13.92775    5.92777   -0.17721
      H1    14.10437    5.32112    0.61645
       H    10.61798    8.55845   -2.74274
       O    11.12212    8.81647   -1.95569
      H1    11.46209    9.70885   -2.10782
       H    13.77973   11.94191    1.67078
       O    14.06471   11.28048    1.08244
      H1    14.01951   10.49056    1.59596
       H    13.53403    7.18359    6.54953
       O    12.83694    6.54312    6.25719
      H1    12.86795    6.72639    5.32566
       H    10.84956   14.80748    3.02935
       O    11.50842   14.15235    2.75895
      H1    11.88550   14.51503    1.91404
       H    11.23542    9.19025    4.39889
       O    11.78476    9.70274    3.78970
      H1    11.98467    9.04944    3.12959
       H    14.58433   17.12243    5.34068
       O    15.17769   16.38982    5.30379
      H1    14.61916   15.68870    4.85103
       H    19.83282   11.44760   -1.08729
       O    19.78636   11.94050   -1.90011
      H1    18.81583   11.81946   -2.13554
       H    13.06384    8.91923   -0.99317
       O    13.76661    8.57091   -0.50762
      H1    13.51688    7.67243   -0.22298
       H    14.02918   15.47954    6.44469
       O    13.23847   15.24328    6.97402
      H1    12.64645   16.06436    6.97267
       H    13.54180   12.09485    8.28982
       O    12.91888   11.30312    8.15732
      H1    13.25695   10.69525    7.51628
       H    10.83842   13.20143    6.34513
       O    11.67608   13.29168    5.89934
      H1    12.07582   14.02765    6.33186
       H    12.44843    2.20080    5.36138
       O    13.25711    2.34359    4.72680
      H1    13.25949    1.53511    4.18307
       H    13.19513   13.95404    3.49715
       O    14.09643   14.20120    3.82469
      H1    14.46622   14.61834    3.06198
       H    15.30687   12.86590    7.78726
       O    14.81336   13.35637    8.46474
      H1    14.50297   14.13188    7.94930
       H    17.60769    8.33653    8.39274
       O    17.92185    8.41025    7.48139
      H1    18.45015    7.62292    7.34791
       H    18.39605    5.80572   -2.19483
       O    19.08358    6.48835   -2.16409
      H1    18.84504    7.04482   -1.43989
       H    18.91036   13.37649    9.00415
       O    18.71173   12.82622    9.74963
      H1    18.59194   11.95788    9.31396
       H    18.21545    5.30520    9.27825
       O    18.07658    4.36719    9.20981
      H1    17.18834    4.27883    9.44341
       H    16.98932    7.81781   10.50025
       O    16.96100    7.11718    9.73640
      H1    16.03654    6.84008    9.99430
       H    15.04595    1.37714    4.99980
       O    15.75893    0.81947    4.68172
      H1    16.30669    0.61843    5.43481
       H    18.61280    8.12640   -4.20468
       O    17.70225    7.91654   -4.57157
      H1    17.29320    7.38050   -3.89241
       H    17.22195   16.51866    1.77745
       O    18.08865   16.96773    1.50322
      H1    17.66751   17.75797    1.18405
       H    17.00414    8.57528    4.33905
       O    17.34005    8.92806    3.47514
      H1    18.20168    9.25253    3.76140
       H    18.48737    2.28920    0.13521
       O    17.69683    2.05286   -0.39023
      H1    17.66413    2.87067   -0.95863

