180
frame 12 | Written by MDAnalysis XYZWriter (release 2.4.3)
       H    -1.81919   16.38827   -1.68091
       O    -2.40658   16.60758   -0.95102
      H1    -1.93632   17.11044   -0.25473
       H    -3.56295   15.36038    8.35873
       O    -3.69911   15.56290    7.42976
      H1    -2.81826   15.47815    7.03445
       H    -0.60797    9.20787    0.59396
       O     0.21383    9.57546    1.04822
      H1     0.34878   10.37980    0.53463
       H     0.04462   11.86885   10.68628
       O     0.53705   12.58844   10.19698
      H1     0.85761   12.03726    9.38798
       H    -4.74150   15.69593    3.05229
       O    -4.83949   16.18254    3.89713
      H1    -5.50669   16.82846    3.77628
       H    -3.73733   17.22248   10.65259
       O    -4.22556   17.20106   11.47725
      H1    -3.73740   16.56861   12.04580
       H    -6.40045    8.68745    8.26235
       O    -5.75134    9.33732    7.86759
      H1    -6.16376   10.18167    8.02898
       H    -2.89479    8.48798    6.52500
       O    -2.75946    8.54095    5.56148
      H1    -2.78106    7.54692    5.28290
       H    -2.57411   11.97192    7.35860
       O    -1.93897   11.63949    8.04311
      H1    -1.08927   11.53511    7.58987
       H    -4.15810   13.15718    6.47471
       O    -3.75769   12.34782    6.12652
      H1    -4.51673   11.75192    6.18229
       H    -6.52952   17.36965    7.75387
       O    -6.15496   16.61724    8.22567
      H1    -5.51145   16.22040    7.60835
       H    -0.80851   18.72026   -0.08553
       O    -0.80335   18.30706    0.75274
      H1    -1.59580   18.78417    1.16493
       H     3.08857   14.71069    1.60268
       O     3.15054   14.67237    2.60780
      H1     3.90542   14.00208    2.76096
       H    -2.79949   11.30652    1.51524
       O    -3.32821   11.08337    2.28972
      H1    -2.69274   10.82533    2.94252
       H     0.45378   12.52627    4.55547
       O     0.03347   12.29482    5.36647
      H1    -0.60666   11.62400    5.07304
       H    -3.93164   13.98297    2.07754
       O    -4.70145   14.55938    1.74005
      H1    -5.47763   14.03777    2.01471
       H    -4.17016   18.51488    1.74865
       O    -3.41150   19.12478    1.87177
      H1    -3.72213   19.86734    1.33658
       H    -4.26513    9.40410    5.50343
       O    -5.20713    9.59331    5.27813
      H1    -5.54659    9.52802    6.19650
       H    -5.31579   10.72856    1.84686
       O    -5.70937   10.13028    1.25372
      H1    -6.28477    9.57342    1.82449
       H    -6.21782   14.70929   10.57907
       O    -5.69374   14.10556   11.09127
      H1    -4.91867   13.99427   10.44274
       H     1.07042   12.31339   -0.77121
       O     0.25605   12.39584   -0.24637
      H1     0.49805   12.87026    0.58946
       H    -4.27564   12.56988   -0.69644
       O    -4.77968   13.38152   -0.78333
      H1    -4.62026   13.78759    0.06612
       H    -2.17802   14.73584    4.82092
       O    -1.60480   14.69694    5.65165
      H1    -1.12419   13.83989    5.41000
       H     1.16439    9.77351    8.57711
       O     1.29024   10.63181    8.19409
      H1     1.78664   10.34200    7.38652
       H    -6.55000    9.57530    3.87833
       O    -7.17151    9.28920    3.19220
      H1    -7.25868    8.37459    3.42006
       H    -1.59990   10.02599   11.40187
       O    -0.79827   10.49503   11.19578
      H1    -0.09331    9.95431   11.51673
       H     1.00648   18.49417    0.98959
       O     1.82511   19.04943    1.31320
      H1     2.57411   18.56594    0.95094
       H    -3.32864   16.84952    4.18742
       O    -2.58496   17.48360    4.21174
      H1    -2.99567   18.20845    3.69149
       H     2.93046   12.37351    8.05579
       O     3.78631   12.82687    8.23439
      H1     3.36428   13.59077    8.57974
       H     0.30930    9.25628    2.84266
       O     0.51720    8.85776    3.70328
      H1     0.44026    7.92607    3.42581
       H     2.70188   17.02993    9.42407
       O     3.57072   17.30034    9.52860
      H1     3.62910   17.44994   10.46620
       H    -6.35635   12.90033    8.11991
       O    -5.88459   12.00657    7.94884
      H1    -5.49925   11.87129    8.87070
       H    -4.28189   11.97366   10.08214
       O    -4.57399   11.07235   10.30486
      H1    -5.46898   11.22954   10.76508
       H    -2.51474   13.25945    9.50664
       O    -3.41882   13.38928    9.82037
      H1    -3.17351   13.26777   10.75540
       H    -4.42440   18.38066    8.97063
       O    -3.48479   18.30959    9.12204
      H1    -3.39127   19.17374    9.48625
       H    -5.73867   18.49433    5.91455
       O    -6.54891   18.42939    6.39531
      H1    -7.20266   18.99245    5.97307
       H     4.34713   17.37828    5.29230
       O     4.02865   17.08294    6.17087
      H1     4.04822   17.88484    6.64877
       H    -6.51274   13.47442    4.36888
       O    -6.77821   13.39677    3.46596
      H1    -7.32632   14.17191    3.30528
       H     0.33792   15.18102   12.39474
       O    -0.31638   14.68961   11.93977
      H1     0.17656   14.07553   11.45457
       H     4.16399   10.92593    5.20455
       O     5.07540   11.34828    5.33565
      H1     5.54928   11.04126    4.54663
       H    -2.48180   10.32249   -0.50517
       O    -2.55717   11.30172   -0.47108
      H1    -1.69097   11.66754   -0.68870
       H    -3.10778   13.97261   12.83474
       O    -2.71840   13.22225   12.33583
      H1    -1.78694   13.48802   12.26406
       H     0.47793   16.00817   10.30088
       O     0.95180   16.62902    9.69319
      H1     0.52838   16.43060    8.83035
       H    -7.36107   15.27562    8.44307
       O    -7.65022   14.35281    8.49270
      H1    -7.76993   14.29473    9.44091
       H    -0.44104   15.98166    6.18130
       O     0.25364   16.39092    6.76002
      H1     0.47069   17.18276    6.30551
       H     0.23940   18.47873    9.33824
       O    -0.02583   19.39024    9.37174
      H1    -0.33704   19.59370    8.48388
       H    -2.42349    9.81785    8.41006
       O    -2.99453    9.00082    8.27673
      H1    -3.88053    9.32185    8.36496
       H     4.49472   15.40705    6.56091
       O     5.06505   14.61717    6.71017
      H1     4.36262   13.93857    6.95984
       H    -3.14953   18.70306    7.36706
       O    -2.56610   19.14031    6.68227
      H1    -2.79194   18.59457    5.87769
       H    -2.74098   12.60359    3.01593
       O    -2.33700   13.47733    3.21575
      H1    -1.38261   13.35487    3.28029
       H    -5.85669   17.61213    0.16190
       O    -5.39505   17.26286    0.93968
      H1    -5.14135   16.35839    0.60044
       H     5.33572   16.61057    3.24095
       O     4.48656   17.08134    3.25175
      H1     3.92231   16.27675    3.06496
       H     1.08297   19.04855    2.92107
       O     0.64482   18.76634    3.73431
      H1     0.46567   17.82840    3.66423
       H     0.32342    7.28444    7.48590
       O     0.03342    6.89171    6.64149
      H1    -0.34851    7.58269    6.15354
       H     1.53818   10.30273    5.21197
       O     2.28984   10.56097    5.75075
      H1     1.89530   11.46860    5.85674
       H    -2.66109   11.44429    5.04772
       O    -1.99540   10.86553    4.59375
      H1    -2.17843    9.95827    4.89004
       H     0.00319   14.29928    2.73677
       O     0.51368   13.46703    2.84803
      H1     1.41535   13.84631    2.81157
       H    -0.50058   16.54010    2.17770
       O    -0.24079   16.27195    3.06246
      H1    -1.00205   16.63639    3.59571
       H     5.61472   12.40275    2.85957
       O     5.53131   13.27358    3.30861
      H1     5.27830   13.08512    4.24564
       H    -6.67213   18.15931    2.37840
       O    -6.99621   18.45655    3.24847
      H1    -7.49248   19.18871    2.89432

