180
frame 1 | Written by MDAnalysis XYZWriter (release 2.4.3)
       H    15.00040   10.05431   18.15293
       O    15.42342   10.63947   18.71811
      H1    16.11109   11.09599   18.16265
       H    16.04333   12.47741    4.42435
       O    16.32489   13.39536    4.46651
      H1    17.29693   13.37465    4.57911
       H    10.35936   14.58320   13.58306
       O     9.64507   14.25895   12.96015
      H1     8.82221   14.74185   13.24492
       H    10.54058   11.03439   11.98060
       O     9.79660   10.61008   12.44532
      H1    10.12010    9.68974   12.49047
       H    12.69851   14.56424   17.86307
       O    13.58533   14.54567   18.12264
      H1    13.65374   15.46975   18.50718
       H    18.07727    8.24749    7.01513
       O    17.23438    8.64159    6.66240
      H1    16.61159    7.93653    6.90709
       H    14.53312    6.78975   11.93812
       O    14.59933    5.96698   11.48168
      H1    13.83177    5.52905   11.83622
       H    11.90489    9.59195    7.88946
       O    11.30764    8.96453    8.35868
      H1    10.37796    9.19187    8.13227
       H    18.02408    6.01645   13.00388
       O    17.38830    6.21076   13.68664
      H1    17.27448    5.38489   14.16124
       H    18.13078   12.07627   12.07001
       O    18.77709   11.84098   12.79270
      H1    19.25517   11.07955   12.37559
       H    15.09431    3.35937   17.41048
       O    15.61901    4.14214   17.48594
      H1    15.08326    4.75601   16.96065
       H    13.87135    8.34810   17.75912
       O    14.40011    8.80589   17.15387
      H1    13.79497    9.36386   16.69472
       H    17.76195   15.82711   11.76890
       O    18.09556   15.41756   10.94906
      H1    17.63035   16.05974   10.32239
       H    15.86731    7.52421   15.79749
       O    15.74618    7.80016   14.86313
      H1    16.41647    7.10693   14.49146
       H    14.15651   12.42193   11.29687
       O    14.32486   12.59974   10.36948
      H1    15.25200   12.44817   10.18481
       H    18.94131   14.50521    7.28552
       O    18.72152   15.47682    7.32834
      H1    18.95225   15.72180    6.42041
       H    13.85027    6.97517   16.19796
       O    13.94742    6.05612   16.49673
      H1    13.28709    5.99921   17.16995
       H    13.28848   10.16258    9.67787
       O    12.77981    9.79358   10.47300
      H1    12.12770    9.23628   10.02045
       H    11.01200   15.49713   11.34651
       O    10.80735   16.47523   11.29757
      H1    10.28364   16.72723   12.10753
       H    18.03874    6.17447   17.77359
       O    18.71813    5.49358   17.71153
      H1    18.33249    4.77535   18.21239
       H    19.59670   17.33434    5.77322
       O    19.24508   16.73965    5.08073
      H1    18.34504   16.99888    4.78806
       H    11.41698   14.48045   15.46268
       O    11.59844   15.02377   14.67003
      H1    11.35068   15.92358   14.98622
       H    20.04382    6.85872   14.67038
       O    19.62360    7.72645   14.63461
      H1    18.74826    7.46992   14.35026
       H    12.47798    6.95855    9.58898
       O    13.11895    6.38358    9.10640
      H1    13.80847    6.06911    9.71754
       H    17.52765   18.91804   11.22886
       O    18.24374   19.36977   10.67045
      H1    17.74734   19.89009   10.00735
       H    17.69053   15.28211   13.69212
       O    17.08100   16.02478   13.45313
      H1    16.18164   15.66340   13.74377
       H    17.88110   16.36631   17.99858
       O    18.62189   16.05752   17.44994
      H1    19.37029   16.11342   18.03150
       H    14.32992    8.26805   13.58529
       O    13.65273    7.86834   13.04534
      H1    13.33920    8.55663   12.47744
       H    18.03189   13.86128   15.43546
       O    17.44191   13.77252   16.24304
      H1    17.82115   14.47466   16.80615
       H    18.49865   11.27225   18.07859
       O    17.96700   12.06151   18.32279
      H1    18.03717   12.44022   17.43732
       H    12.66410    8.76133    6.16370
       O    13.62267    8.86379    6.01220
      H1    13.99457    8.08066    6.36772
       H    16.33286   17.16978   12.01754
       O    15.67280   17.85346   11.92227
      H1    15.22293   17.69291   12.76497
       H    14.26143   14.24805   10.09870
       O    14.31220   15.22857   10.24356
      H1    13.96233   15.25099   11.13663
       H    13.63037   11.62041   15.80728
       O    13.15961   10.77189   15.71672
      H1    12.35414   11.07316   16.21275
       H    14.46141   18.72462    8.30330
       O    15.33316   18.67615    7.89017
      H1    15.90527   18.29647    8.61998
       H    13.30671   12.73845   18.75987
       O    12.98842   11.87336   18.89726
      H1    13.79887   11.37502   18.98013
       H    17.42081   13.46734   10.51964
       O    17.22602   12.55269   10.32759
      H1    17.15593   12.53776    9.33571
       H    16.15016    9.98991   14.62247
       O    16.22968   10.97870   14.64742
      H1    17.11324   11.13662   14.32152
       H    14.72254    6.33851    6.15441
       O    15.01022    6.56392    7.07740
      H1    14.21406    6.60825    7.58952
       H    14.11619    4.37963   13.59103
       O    14.61485    3.68205   14.14891
      H1    13.93711    3.49624   14.82585
       H    15.82058   18.46625   16.59557
       O    14.93364   18.69952   16.26864
      H1    15.20071   19.30499   15.58579
       H    14.01756   17.10324    9.88336
       O    13.49280   17.92118    9.77479
      H1    13.02829   17.76557   10.66677
       H    12.83240   13.62843   13.50689
       O    13.08318   12.77735   13.10625
      H1    13.21679   12.25164   13.87333
       H    14.91831   15.14804    6.96806
       O    14.98564   14.53593    7.70483
      H1    15.04141   15.21313    8.37829
       H    14.53378   11.29729    8.39526
       O    13.70843   10.87602    8.03780
      H1    13.96217   10.30139    7.27598
       H    12.78094   12.64893    8.15899
       O    12.64030   13.60364    8.28131
      H1    13.48756   13.94480    8.03445
       H    18.79980    5.56601   10.97302
       O    17.87218    5.91141   10.86433
      H1    17.31823    5.10918   10.88401
       H    19.32048   13.79500   13.34397
       O    19.08618   14.43137   14.01300
      H1    19.78700   15.07418   14.09863
       H    16.36638   11.73181    6.84836
       O    16.46131   12.12446    7.72733
      H1    16.02853   13.02216    7.57578
       H    14.34120   13.75847   16.70785
       O    14.30228   13.26358   15.84728
      H1    15.22603   12.93317   15.78446
       H    13.37838   15.46669   13.79166
       O    14.30787   15.19259   13.60846
      H1    14.41726   14.40504   14.21231
       H    19.04348    3.35260   12.99765
       O    19.01943    3.09787   12.06664
      H1    18.87618    2.13120   12.13503
       H    18.44859    4.82600    8.12463
       O    19.10266    4.08165    7.98709
      H1    19.27311    3.78430    8.92717
       H    18.13132   17.52681    8.89349
       O    17.24659   17.08250    9.04710
      H1    17.30322   16.29322    8.47005
       H    17.44661    6.09254    9.18755
       O    17.48002    6.26355    8.22348
      H1    16.58665    5.91682    7.98289
       H    17.71151   17.33837   14.82436
       O    17.78796   17.73963   15.72125
      H1    18.09184   16.97520   16.29089
       H    11.60614   12.80360   10.30449
       O    11.10232   12.01970   10.44758
      H1    11.75087   11.34146   10.45701
       H    16.22740    3.68863   14.57175
       O    17.14813    3.91081   14.79757
      H1    17.03347    3.98228   15.74056
       H    17.51557    8.90752    4.73898
       O    17.90177    8.75909    3.85334
      H1    18.80331    9.14301    3.91669
       H    18.03573    9.04899   10.75277
       O    17.71526    8.71435   11.63586
      H1    17.51113    7.76436   11.52625

