180
frame 11 | Written by MDAnalysis XYZWriter (release 2.4.3)
       H   -12.37607  -16.81677   -5.69914
       O   -11.52285  -17.23397   -5.80124
      H1   -10.91063  -16.78913   -5.18332
       H   -17.56622  -16.31076    7.94628
       O   -17.68320  -15.81310    7.13275
      H1   -17.42962  -14.90784    7.46758
       H   -16.92591  -16.97067    5.44089
       O   -17.27610  -17.64622    4.81422
      H1   -18.17602  -17.21762    4.73380
       H    -9.53263  -15.44517   -0.91233
       O    -8.76429  -15.92475   -1.18476
      H1    -8.11049  -15.20734   -1.22487
       H    -8.85407  -13.01878    1.38955
       O    -8.54868  -12.15740    1.37187
      H1    -7.88825  -12.13680    2.09847
       H   -10.10667   -8.81396    1.43968
       O   -11.02040   -9.17114    1.39363
      H1   -10.96224   -9.99389    1.94234
       H   -10.67397  -12.02073    1.68783
       O   -11.43614  -11.65559    2.06323
      H1   -11.18688  -11.74076    2.94379
       H   -12.35493  -18.22885    5.65188
       O   -11.71531  -18.11509    6.33166
      H1   -12.07862  -17.52125    7.00548
       H    -9.74183  -15.31031    4.41379
       O    -9.79821  -14.34493    4.38691
      H1    -8.93028  -14.09667    4.76161
       H   -12.29642  -14.80364    5.43730
       O   -12.21833  -14.98952    6.38780
      H1   -13.11920  -15.19801    6.63500
       H    -9.14286  -11.52853   -1.20111
       O    -8.89201  -12.19019   -1.84575
      H1    -8.29225  -12.71934   -1.23984
       H   -12.97519  -11.31007   -0.47628
       O   -12.81505  -11.77774   -1.32185
      H1   -13.54373  -12.43647   -1.24245
       H   -19.38908  -12.57682   -4.74191
       O   -18.49457  -12.93379   -4.98661
      H1   -18.57765  -12.91253   -5.96384
       H   -11.24393  -13.38200   -1.07216
       O   -10.90970  -14.08844   -0.54554
      H1   -11.67691  -14.36101    0.03762
       H   -13.92426  -17.52974    4.01213
       O   -13.43584  -18.34859    4.25676
      H1   -14.05428  -18.94506    4.67965
       H   -17.73127  -12.66455   -3.21920
       O   -17.42767  -12.72657   -2.31950
      H1   -18.00443  -12.29361   -1.68558
       H   -15.80766  -13.72936    7.51917
       O   -16.56352  -13.46300    8.05559
      H1   -16.77456  -12.51262    7.78847
       H   -14.74055   -9.85826   -1.12387
       O   -15.69583  -10.05604   -1.05995
      H1   -15.86449  -10.84712   -0.54171
       H   -18.60721  -19.57709   -3.98773
       O   -17.91178  -19.46797   -4.69665
      H1   -17.13527  -19.00630   -4.27795
       H   -16.44842  -10.45106    6.42382
       O   -17.21255  -11.01954    6.57111
      H1   -17.80120  -10.54290    7.20971
       H   -16.62983   -7.62651    0.71186
       O   -15.74557   -7.83153    0.38698
      H1   -15.83851   -8.71110   -0.02319
       H   -14.08111  -14.90692    8.45864
       O   -14.51464  -15.29007    7.65478
      H1   -14.80113  -16.13937    8.11514
       H   -10.66955  -17.36736    4.62122
       O   -10.04292  -17.03671    4.00510
      H1    -9.26160  -17.62942    4.04917
       H    -9.96170  -16.84778    8.01981
       O   -10.24678  -15.93794    7.97438
      H1   -10.83812  -15.86090    7.23532
       H    -9.07610  -16.14594   -3.15880
       O    -9.38121  -16.13202   -4.08566
      H1    -8.45228  -16.24833   -4.46566
       H   -19.31886  -16.83638   -1.02693
       O   -19.43101  -17.81676   -0.77717
      H1   -18.73871  -17.85249   -0.11493
       H   -16.05969  -18.16794    8.62740
       O   -15.20033  -17.87052    8.36605
      H1   -14.68795  -18.04159    9.15730
       H   -17.42890   -8.95730    5.04825
       O   -16.98563   -8.76605    4.19700
      H1   -16.64000   -9.64302    4.01359
       H   -15.44217  -13.21955   -0.39496
       O   -15.02720  -13.20244   -1.27927
      H1   -15.78714  -12.83515   -1.75018
       H   -11.59926  -11.77718   -3.38584
       O   -11.33530  -11.81209   -4.29618
      H1   -12.06445  -11.34534   -4.67797
       H   -16.66622  -18.50791    0.13523
       O   -17.20034  -18.33692    0.94155
      H1   -16.72136  -17.52653    1.20773
       H   -17.61230  -14.29760   -4.17719
       O   -17.40329  -15.25588   -4.08489
      H1   -17.17393  -15.44349   -3.15072
       H    -9.90527  -11.12162    4.94419
       O   -10.69777  -11.66009    4.75726
      H1   -10.30209  -12.53154    4.65922
       H   -19.20118  -10.77425    0.55018
       O   -18.69528  -10.41923    1.27317
      H1   -19.22247  -10.83332    1.98333
       H   -13.02734  -10.86728    1.38195
       O   -13.38810  -10.22449    0.76944
      H1   -12.55988   -9.70872    0.64693
       H   -14.34885  -10.02629    6.13431
       O   -15.11173   -9.36679    6.08860
      H1   -14.86524   -9.05486    5.19190
       H    -9.93161  -16.80273    2.27389
       O    -9.94617  -16.60273    1.29045
      H1    -9.01267  -16.64572    0.99485
       H   -13.44045  -15.48694    2.95986
       O   -14.15077  -15.74127    3.62086
      H1   -14.39690  -14.96488    4.13098
       H   -12.73046  -13.60440   -4.93049
       O   -13.48217  -14.21022   -4.81619
      H1   -14.16612  -13.57754   -4.51301
       H   -12.09162  -12.17161    6.25460
       O   -12.85630  -11.80936    6.75977
      H1   -13.56639  -12.13881    6.19444
       H   -15.64951  -15.38484   -1.47128
       O   -16.44634  -15.93773   -1.45673
      H1   -16.23849  -16.72646   -0.90876
       H   -18.89889  -19.72297    6.65360
       O   -17.98410  -19.45088    6.77022
      H1   -17.86451  -18.71979    6.14378
       H   -14.20059  -12.83774    4.07792
       O   -14.60763  -13.20383    4.89566
      H1   -15.57218  -13.13633    4.71617
       H   -12.73886   -8.42186    2.03282
       O   -13.08919   -7.98958    2.84957
      H1   -12.71304   -8.49490    3.60229
       H   -14.38524  -18.70442   -0.96120
       O   -15.18168  -19.28033   -0.73390
      H1   -15.58159  -19.38782   -1.62352
       H   -12.97828  -16.83595   -1.40586
       O   -13.23682  -17.24416   -0.54039
      H1   -12.51129  -17.82184   -0.26555
       H   -12.65787  -16.08939    0.76917
       O   -12.37582  -15.32695    1.35838
      H1   -11.38129  -15.52764    1.47917
       H   -10.75083  -19.78724   -0.29506
       O   -11.27422  -19.02875    0.10415
      H1   -10.55444  -18.52250    0.55036
       H   -18.18099  -13.51245    4.63509
       O   -17.30807  -13.24548    4.94441
      H1   -17.55940  -12.38377    5.40934
       H   -11.96612   -8.52477    5.22630
       O   -12.47977   -9.38018    5.01445
      H1   -11.80842  -10.07038    5.17924
       H   -16.58752  -10.00224    1.94265
       O   -15.81991  -10.48898    2.31861
      H1   -15.05102  -10.31478    1.75283
       H   -14.15647  -15.80154   -5.40089
       O   -14.51503  -16.70546   -5.44522
      H1   -14.85559  -16.56351   -6.32414
       H   -16.52621  -17.52615   -3.19943
       O   -15.81174  -18.10592   -3.44144
      H1   -15.42132  -17.57658   -4.14576
       H   -17.83069   -8.55734   -2.87033
       O   -17.84459   -9.53349   -2.85020
      H1   -17.15948   -9.69642   -2.17605
       H   -15.34932  -15.37642    1.30641
       O   -16.04177  -15.86210    1.75891
      H1   -15.63923  -16.07305    2.59487
       H   -15.88161  -12.11080    1.52543
       O   -15.66003  -13.02867    1.25655
      H1   -16.40779  -13.58968    1.68195
       H   -17.77523  -15.34276    2.43077
       O   -18.58480  -14.79936    2.65581
      H1   -19.15882  -15.56423    2.86691
       H   -19.13438  -17.67240   -4.77516
       O   -19.37535  -16.76358   -5.07130
      H1   -18.66208  -16.16739   -4.77099
       H   -12.77043  -15.08891   -2.91871
       O   -12.11071  -15.53241   -2.35677
      H1   -11.79508  -14.79732   -1.78830
       H   -15.32067  -11.49512   -4.85260
       O   -15.51483  -12.42397   -4.98324
      H1   -16.22146  -12.33342   -5.62364

