180
frame 0 | Written by MDAnalysis XYZWriter (release 2.4.3)
       H    18.43635   -6.68989  -17.20460
       O    17.65497   -7.10283  -16.84604
      H1    17.55264   -7.70459  -17.65884
       H    14.61272   -9.64140  -12.84084
       O    14.58104   -9.28618  -13.71301
      H1    15.11752   -8.48547  -13.68149
       H    13.08062    0.01812  -19.30508
       O    13.06566    0.42481  -18.40718
      H1    13.98819    0.74551  -18.25451
       H    15.29946    5.01848  -19.24730
       O    14.56818    5.26170  -18.63121
      H1    15.00955    5.49886  -17.81046
       H    11.11356   -7.88563  -17.49389
       O    11.86300   -8.41749  -17.75370
      H1    12.00264   -8.20494  -18.67965
       H    19.48289   -6.27084  -12.71945
       O    19.08802   -6.15568  -11.84542
      H1    18.65480   -5.25941  -11.87432
       H    10.21465   -2.65437  -13.87217
       O    10.01174   -1.79284  -13.46988
      H1     9.41774   -1.29764  -14.10014
       H    18.69813    0.29502  -12.18115
       O    18.91934    1.19430  -12.38897
      H1    19.81129    1.32170  -12.01696
       H    12.88967   -1.63959  -13.85281
       O    13.13300   -2.53661  -13.42306
      H1    12.58143   -3.13149  -13.93182
       H    14.45735   -1.57555  -10.91453
       O    14.40083   -0.57225  -10.81086
      H1    14.56360   -0.48198   -9.86687
       H    10.54650   -2.72959  -11.64510
       O    10.17643   -2.76301  -10.74566
      H1     9.23437   -2.81629  -10.84543
       H    13.79706   -4.37832   -8.07426
       O    13.41412   -4.17110   -8.93493
      H1    12.57762   -4.54911   -8.82675
       H    17.15288   -0.71276  -10.80531
       O    17.92911   -1.23886  -11.23810
      H1    18.50911   -1.40497  -10.42885
       H     7.67206    0.36423  -14.84476
       O     8.46755   -0.19333  -15.06014
      H1     9.20770    0.40051  -14.93580
       H    14.20994   -3.77539  -10.84201
       O    14.68190   -3.83396  -11.71198
      H1    14.09847   -3.32850  -12.29920
       H    13.90958    3.90096  -17.83947
       O    13.79096    3.40178  -16.99223
      H1    13.18029    2.80985  -17.33741
       H    18.67197  -10.43350  -12.87537
       O    18.29107  -11.23590  -12.50558
      H1    18.36473  -11.01200  -11.57353
       H    17.49969    2.23141  -11.44430
       O    16.67481    2.57600  -11.09703
      H1    16.98888    2.88660  -10.20589
       H    13.16996   -9.35781  -16.46398
       O    13.38616  -10.28961  -16.31500
      H1    13.99509  -10.13936  -15.56321
       H    18.83416  -11.07292  -17.00014
       O    18.23564  -11.68540  -17.47810
      H1    17.33350  -11.22658  -17.44872
       H    13.02334   -1.33149  -17.44229
       O    12.53410   -2.15228  -17.17465
      H1    11.58375   -2.01845  -17.29709
       H    17.53624   -0.47437   -7.55933
       O    16.83634   -1.07949   -7.40825
      H1    16.90853   -1.70186   -8.12159
       H    11.23407   -4.72335  -15.07224
       O    10.48196   -4.50426  -14.46199
      H1    10.47845   -5.26299  -13.87183
       H    15.88195   -3.95565  -15.82862
       O    15.81301   -3.41269  -16.62737
      H1    16.77326   -3.15017  -16.73907
       H    18.47264   -1.27136  -13.54940
       O    18.38956   -2.01880  -14.18163
      H1    17.98541   -2.68970  -13.54045
       H    16.37111   -6.20818   -9.30748
       O    16.75470   -6.08152   -8.42689
      H1    17.50358   -5.56469   -8.60217
       H    18.87226   -4.18153   -8.01250
       O    18.76754   -4.36596   -8.99654
      H1    19.36089   -5.14387   -9.04383
       H    17.71135   -2.91610  -11.49583
       O    17.59494   -3.70035  -12.08579
      H1    16.64955   -3.72503  -12.25080
       H    15.39299   -3.43204   -9.07745
       O    16.27490   -3.00211   -9.09925
      H1    16.93437   -3.68808   -9.29392
       H    12.95379   -3.82468  -15.84958
       O    12.84348   -4.73146  -15.50882
      H1    13.05288   -5.25233  -16.28262
       H    12.16290    1.63806  -11.56481
       O    12.64906    1.15380  -12.20241
      H1    13.26037    0.69627  -11.65361
       H     9.08802   -4.47468  -15.80715
       O     8.93152   -4.15552  -16.75229
      H1     7.93362   -4.35016  -16.74914
       H    15.57590    2.54436  -17.10014
       O    16.13204    1.69931  -17.05630
      H1    15.72907    1.03650  -16.53102
       H    12.93307   -2.83978  -20.12160
       O    12.48978   -3.63878  -19.65883
      H1    12.73349   -3.42967  -18.72502
       H    17.49066    3.86904  -18.13686
       O    17.15031    4.44698  -17.41251
      H1    17.69604    5.24128  -17.66012
       H    16.51228   -6.36779  -13.49761
       O    16.71816   -7.04483  -12.81670
      H1    17.54577   -6.68487  -12.42710
       H    17.82808   -0.15913  -18.34389
       O    17.12595    0.17846  -19.01116
      H1    16.81333    0.94102  -18.49615
       H    11.42686    1.52115  -18.17730
       O    11.00506    2.24256  -17.63361
      H1    11.02174    1.89133  -16.72808
       H    14.59690   -5.74954  -14.96754
       O    15.54416   -5.69729  -14.85161
      H1    15.88031   -6.33125  -15.51230
       H    15.70132  -10.71800  -14.19346
       O    16.39765  -10.86145  -14.82721
      H1    17.03522  -11.30252  -14.22303
       H     9.75066   -6.17199  -11.90093
       O    10.61156   -5.92836  -12.23786
      H1    11.27613   -6.30447  -11.65593
       H    18.86602   -3.41853  -16.79511
       O    18.26124   -2.67239  -17.04731
      H1    18.05096   -2.32752  -16.15414
       H     8.99088   -7.28266  -17.25358
       O     9.54759   -6.62967  -17.69549
      H1     9.17090   -5.78351  -17.37447
       H    18.20831   -9.04859  -14.90403
       O    18.71845   -8.81320  -14.08308
      H1    18.05096   -8.43469  -13.50352
       H    11.29142    0.84178  -14.85969
       O    10.57304    1.50288  -14.97835
      H1    10.81199    2.25856  -14.37365
       H    12.50004    0.30524  -13.65126
       O    12.42996   -0.26279  -14.46962
      H1    13.19992    0.01481  -15.04024
       H    15.24531    0.05719  -14.78218
       O    14.87735   -0.38183  -15.57621
      H1    15.19381   -1.28398  -15.58323
       H    19.84208   -9.24936  -19.11026
       O    18.95362   -8.99373  -19.32089
      H1    18.99749   -8.02368  -19.56542
       H    18.35143    1.88647  -14.51649
       O    17.95395    2.74005  -14.72034
      H1    17.53653    2.53386  -15.54604
       H    12.27475   -9.74021  -14.52631
       O    11.66958   -9.14965  -14.09717
      H1    12.30495   -8.53138  -13.69241
       H    18.94021    4.41519  -15.27951
       O    19.47543    5.10496  -15.51105
      H1    18.98955    5.70218  -16.02900
       H    14.96336  -10.58478  -17.59247
       O    15.60170  -10.84254  -18.27211
      H1    15.11023  -11.49288  -18.82271
       H    15.75615   -7.10111  -10.99855
       O    15.33723   -7.49841  -10.24012
      H1    15.79480   -8.34016  -10.26732
       H    13.63528   -7.19769  -11.12139
       O    12.84225   -7.44091  -11.58394
      H1    12.64748   -8.29258  -11.24217
       H    13.16341   -5.75405  -18.68809
       O    13.38284   -6.04566  -17.74468
      H1    13.15968   -6.98937  -17.78236
       H    16.14232    1.49921  -12.70016
       O    15.70570    0.86449  -13.28635
      H1    15.05350    0.55384  -12.60401
       H    16.47637   -4.06961  -18.09879
       O    16.70927   -4.46874  -19.00664
      H1    15.96096   -5.07873  -19.21630
       H    18.27559    1.59326  -18.88561
       O    18.62251    2.48142  -19.12613
      H1    19.41711    2.45484  -18.50815
       H    16.05785    4.14059  -13.89554
       O    16.09074    4.45375  -12.98859
      H1    16.24298    3.64335  -12.40026
       H     9.50382   -0.91422  -16.83279
       O     9.67914   -1.44511  -17.62325
      H1     9.33484   -2.22445  -17.26908

