180
frame 7 | Written by MDAnalysis XYZWriter (release 2.4.3)
       H    -2.82045  -15.05003  -10.42509
       O    -3.58232  -15.51448  -10.72997
      H1    -4.38128  -14.94923  -10.61356
       H    -4.77017   -8.08804   -1.73199
       O    -4.55762   -9.00968   -1.62880
      H1    -3.90591   -9.00423   -0.94952
       H     1.10588  -12.02368   -6.24648
       O     0.69712  -12.71771   -6.74503
      H1    -0.19507  -12.78804   -6.38369
       H    -0.18350   -8.68974   -2.42280
       O     0.49680   -9.12718   -2.92981
      H1     0.24647   -9.16442   -3.81231
       H     1.21038   -7.41711   -3.48364
       O     1.21970   -6.51807   -3.83080
      H1     1.94400   -6.57743   -4.41400
       H    -7.25370  -12.01885  -11.18195
       O    -7.36533  -11.56977  -11.98026
      H1    -6.47983  -11.37690  -12.30140
       H    -2.23914   -5.50128   -5.73574
       O    -2.81216   -5.45376   -6.47965
      H1    -2.45338   -4.66861   -6.88764
       H    -1.18059  -11.31973  -12.06586
       O    -0.47911  -10.66938  -11.98469
      H1    -0.35570  -10.28334  -12.85510
       H     2.76967  -10.88719   -4.83014
       O     1.78578  -10.88282   -5.00454
      H1     1.37734  -11.46118   -4.36312
       H     0.04892   -5.51427   -6.14110
       O    -0.13238   -4.81594   -5.48707
      H1     0.51512   -4.91443   -4.80064
       H     0.27173   -4.68458  -10.48051
       O    -0.13838   -3.85695  -10.61859
      H1    -0.76040   -3.69156   -9.86617
       H    -0.76386   -6.33522  -10.14047
       O    -1.63388   -6.73131   -9.89017
      H1    -2.30627   -6.04260  -10.11521
       H     3.65024  -14.71415   -2.83252
       O     3.13900  -14.15661   -3.43158
      H1     2.39121  -14.70596   -3.80846
       H     2.58533   -9.85028   -9.38249
       O     2.46860   -8.94678   -9.68156
      H1     3.27682   -8.47225   -9.39640
       H     0.92536   -6.97132  -10.94675
       O     0.95471   -6.22917  -10.33240
      H1     1.27201   -6.53962   -9.50034
       H    -1.83180  -14.54084   -6.03479
       O    -2.17161  -13.62451   -5.85859
      H1    -2.99868  -13.76740   -5.30729
       H    -1.01466  -13.20414   -4.37388
       O    -0.35473  -13.20082   -3.65150
      H1    -0.85150  -13.50762   -2.86097
       H    -8.49202   -6.46404   -8.31172
       O    -8.63274   -6.46410   -7.34769
      H1    -7.82929   -6.90442   -6.94231
       H    -3.74570  -12.43859   -3.68994
       O    -4.05762  -13.35144   -3.86259
      H1    -4.72492  -13.24487   -4.52914
       H    -4.90311  -10.13408  -12.84091
       O    -4.80776  -10.65222  -11.99607
      H1    -4.14223  -10.21141  -11.44596
       H     5.13458  -11.38726   -5.19515
       O     4.64669  -12.19351   -5.26929
      H1     4.71480  -12.87779   -4.57322
       H     3.24443  -11.52566   -7.97415
       O     3.02276  -11.36555   -8.92687
      H1     2.16249  -11.80216   -9.02795
       H    -5.25907  -13.25582  -12.95180
       O    -5.03073  -13.20769  -12.02177
      H1    -4.96274  -12.21924  -11.94490
       H     4.33402   -8.08960   -5.56998
       O     3.56817   -7.44567   -5.58015
      H1     2.96458   -7.86358   -6.24378
       H    -2.01770   -7.05147   -1.46522
       O    -1.33414   -7.69547   -1.10929
      H1    -0.78156   -7.17854   -0.59262
       H    -7.45595   -9.56616  -11.06964
       O    -7.83704   -9.00345  -10.34856
      H1    -7.03221   -8.78378   -9.88273
       H    -3.75443  -14.64518   -6.97800
       O    -4.47910  -15.33503   -6.84098
      H1    -5.18224  -14.79965   -6.45926
       H    -2.56008  -12.71536   -9.90728
       O    -1.91559  -12.98639  -10.55920
      H1    -1.06541  -12.97427  -10.13893
       H     2.01866   -9.23183   -7.79984
       O     1.64964   -8.88362   -7.00952
      H1     1.53077   -9.63433   -6.45728
       H    -6.37750   -7.13569   -4.29069
       O    -6.66354   -7.22914   -5.22654
      H1    -6.78666   -8.18192   -5.34059
       H     0.54733  -11.69110  -10.35689
       O     0.69367  -12.44721   -9.75858
      H1     0.19762  -12.27549   -8.89165
       H    -7.93892  -10.52094   -5.16443
       O    -7.08159  -10.22613   -4.87670
      H1    -6.92723  -10.84248   -4.14319
       H     0.21733  -10.27104   -1.34848
       O     0.20543  -10.97227   -0.70258
      H1     0.49450  -10.50138    0.05405
       H    -5.18737   -6.92920   -9.23359
       O    -5.71408   -7.61262   -8.88804
      H1    -5.43279   -7.84758   -8.00470
       H    -2.80568  -16.31769   -6.41464
       O    -2.11127  -16.47659   -5.81065
      H1    -1.45553  -16.91871   -6.31766
       H    -4.88666   -5.86607   -2.88141
       O    -5.61398   -6.45985   -2.67467
      H1    -6.26988   -5.90668   -2.21365
       H    -3.44769  -11.41126   -8.43782
       O    -4.07544  -12.04267   -8.79950
      H1    -4.91887  -11.58716   -8.64193
       H    -2.06315   -9.89619   -8.62197
       O    -1.60219  -10.54615   -8.13605
      H1    -1.80656  -10.28921   -7.17180
       H    -2.66237  -13.44074  -13.69289
       O    -2.02207  -13.02981  -13.16508
      H1    -2.36330  -13.07703  -12.25884
       H    -5.13116  -14.05502   -2.41447
       O    -6.02484  -14.32247   -2.04636
      H1    -5.85445  -14.64693   -1.16659
       H    -1.63118  -13.51947   -0.92748
       O    -1.13185  -14.27602   -1.18862
      H1    -0.24498  -14.22880   -0.76069
       H    -4.88567   -4.82573  -10.52501
       O    -4.52635   -5.64520  -10.80510
      H1    -4.78566   -5.76826  -11.73809
       H     0.01628  -16.49141   -4.03633
       O     0.44391  -15.67742   -4.25039
      H1     0.01617  -15.08587   -3.71393
       H    -4.58788   -7.99364   -6.06798
       O    -3.74385   -8.06492   -6.51402
      H1    -3.43605   -7.09831   -6.51928
       H     0.72385  -16.70186   -6.81324
       O     0.02640  -17.29590   -7.13469
      H1    -0.07007  -17.33905   -8.07598
       H     3.54432  -13.72936   -9.66804
       O     2.83540  -14.35215   -9.40990
      H1     2.01837  -13.85422   -9.65998
       H     4.34718  -12.18356   -9.84519
       O     5.11318  -12.84955   -9.87333
      H1     5.11443  -13.07641  -10.83285
       H     2.59772  -14.81682   -7.70656
       O     2.31490  -15.22265   -6.88907
      H1     1.75837  -14.51076   -6.47698
       H     0.53515   -7.45892   -7.44483
       O     0.17612   -6.58932   -7.61244
      H1    -0.58835   -6.60870   -8.13634
       H     1.77547  -11.85172   -1.29156
       O     2.68639  -12.18024   -1.26303
      H1     2.79874  -12.72178   -2.02613
       H    -7.10859  -13.14251   -5.55764
       O    -6.26091  -12.96768   -6.03963
      H1    -6.32597  -12.00848   -6.18181
       H     0.77154  -12.82444  -14.11979
       O     0.63060  -13.28467  -13.24162
      H1    -0.34694  -13.08486  -13.19677
       H    -2.79093   -8.11514   -9.96863
       O    -3.40952   -8.86884   -9.83186
      H1    -4.24922   -8.48189   -9.55133
       H    -2.07452   -7.39716  -12.23600
       O    -1.76250   -7.33126  -13.14627
      H1    -1.61834   -8.22493  -13.49189
       H    -7.58879  -12.88578   -8.58965
       O    -7.29266  -12.06343   -9.00021
      H1    -8.00632  -11.36549   -8.81984
       H    -1.86276   -9.82311   -4.37418
       O    -1.47398   -9.46066   -5.20426
      H1    -2.27939   -9.08389   -5.62713
       H     1.91574  -12.24875  -12.79247
       O     2.50756  -11.48096  -12.60534
      H1     1.84586  -10.77974  -12.39243
       H    -3.66785  -10.43717   -2.94841
       O    -2.94501  -11.00074   -3.16418
      H1    -2.59697  -11.21631   -2.23954
       H    -3.04920  -11.67523    0.24465
       O    -2.39350  -11.88512   -0.37278
      H1    -1.56202  -11.44435   -0.09960
       H    -4.94844   -4.47540   -6.95144
       O    -5.40411   -4.08876   -7.71046
      H1    -6.32572   -3.94050   -7.40615

