180
frame 4 | Written by MDAnalysis XYZWriter (release 2.4.3)
       H    19.90765  -15.85130    6.53436
       O    19.14581  -15.23174    6.59876
      H1    19.71181  -14.45684    6.67309
       H    12.20146   -6.70154    2.27140
       O    12.80083   -7.07562    2.87432
      H1    13.69355   -6.79133    2.61096
       H    16.70555  -13.92536    7.32899
       O    16.21047  -13.11060    7.24038
      H1    16.87789  -12.43933    7.10857
       H    18.66504  -14.24619    9.72555
       O    19.23903  -13.44880    9.94274
      H1    19.07257  -13.31956   10.90040
       H    15.25033  -13.07870   12.96849
       O    15.65652  -13.79729   12.41293
      H1    16.02272  -13.25721   11.65869
       H    11.96062   -9.87575    9.52016
       O    11.65977  -10.20631    8.65383
      H1    10.72016  -10.53030    8.85688
       H    14.68963  -17.37744    5.69848
       O    14.41866  -18.38870    5.57233
      H1    14.15772  -18.67089    6.47616
       H    13.09461   -4.93169    4.15154
       O    12.42405   -5.33080    4.69692
      H1    12.37030   -6.19780    4.26594
       H    13.94206  -11.77627   12.90480
       O    14.19373  -12.04917   13.75783
      H1    13.53917  -12.68948   14.00213
       H    17.87411   -8.05313    0.40970
       O    17.25022   -8.63068    0.04155
      H1    17.63351   -8.73962   -0.85514
       H    19.01509  -10.13954    3.66377
       O    18.78039   -9.99199    2.76319
      H1    18.38044   -9.08420    2.74578
       H    16.46473  -14.66588    0.74298
       O    17.05698  -14.98562    1.44025
      H1    16.58488  -15.70671    1.91336
       H    12.37265   -6.87260   10.21364
       O    11.94601   -7.02682   11.14740
      H1    11.68278   -6.12790   11.46670
       H    12.92125  -11.38732    8.25519
       O    13.78924  -11.80604    8.23005
      H1    14.40456  -11.03471    8.13452
       H    14.22141   -3.93728    8.74673
       O    14.33330   -4.54762    9.46512
      H1    14.12842   -4.03889   10.27520
       H    18.65905   -5.68329    1.31494
       O    19.06879   -6.16727    0.57367
      H1    19.82927   -6.50554    1.00688
       H    16.20290   -4.83016   12.65466
       O    16.09729   -5.09741   11.73172
      H1    16.16865   -4.17724   11.41352
       H    15.14821   -8.83663   -0.53947
       O    14.40829   -8.82098    0.04893
      H1    14.91077   -9.13128    0.83068
       H    17.27260  -18.76723   10.11951
       O    17.50676  -18.65194    9.19026
      H1    17.68292  -17.70879    9.05771
       H     9.40770   -7.81278    5.77854
       O     9.81060   -8.70173    5.71514
      H1    10.78142   -8.57731    5.58508
       H    16.69007   -6.66206   14.17481
       O    17.01425   -7.55552   13.92651
      H1    16.70041   -7.71313   13.02121
       H    19.20427  -10.55590    8.35793
       O    18.54589  -10.59588    7.70649
      H1    17.97571   -9.82246    7.92192
       H    11.94978  -10.57594    1.90564
       O    12.77788  -11.03434    2.05367
      H1    13.24563  -11.06791    1.18792
       H    16.44665   -7.96331    8.91460
       O    17.39571   -8.11533    8.64540
      H1    17.33101   -7.71750    7.77789
       H    16.47104   -4.37717    8.72119
       O    17.20243   -3.91626    8.23800
      H1    17.93290   -4.60310    8.21326
       H    18.26614  -15.55116    8.16389
       O    18.07841  -15.54157    9.12391
      H1    17.13330  -15.69567    9.07101
       H    17.15517   -8.08514    3.47384
       O    17.59308   -7.44312    2.93300
      H1    16.80317   -6.94982    2.58016
       H    13.31806  -13.79240   10.68351
       O    13.54120  -14.69674   11.02707
      H1    14.20643  -14.51412   11.69457
       H    14.66350  -15.19552    5.82301
       O    15.38021  -15.83624    5.64928
      H1    15.24242  -16.16312    4.70620
       H    12.34991   -8.95750    6.83105
       O    12.48412   -9.10730    5.88230
      H1    13.17728   -8.44001    5.76412
       H    17.33903  -10.00117   15.39864
       O    18.01521   -9.93315   16.08660
      H1    17.94050   -8.99337   16.16834
       H    16.64404  -14.52431   13.93944
       O    16.99193  -15.21438   14.55841
      H1    17.50057  -14.76726   15.26521
       H    15.56520  -11.00757   13.80514
       O    16.16140  -10.32357   14.11681
      H1    16.50736   -9.97319   13.25343
       H    15.24836  -15.49343    8.03519
       O    15.51570  -15.71139    8.97716
      H1    14.84678  -15.33437    9.57072
       H    12.46457   -8.75263   11.58381
       O    12.79030   -9.56105   12.04325
      H1    13.51740   -9.28462   12.63711
       H    14.88254  -13.69785    0.11598
       O    15.67910  -13.55047   -0.30979
      H1    16.08312  -12.98496    0.35169
       H    15.68153   -3.99043   14.50876
       O    16.32577   -4.72410   14.30227
      H1    17.04167   -4.04685   14.14625
       H    13.03673  -16.46754    8.05731
       O    12.12756  -16.72994    7.95694
      H1    11.99810  -17.06928    8.83287
       H    14.34510   -7.43690    8.99229
       O    15.01668   -7.45674    9.72711
      H1    14.97350   -6.56253   10.05661
       H    19.04655  -17.42103   12.17229
       O    19.61722  -17.04261   11.50171
      H1    18.88119  -16.72826   10.93820
       H    16.19687   -1.29414    5.57945
       O    16.60489   -1.46828    6.39094
      H1    16.33409   -0.76158    6.98822
       H    15.02071   -6.69198    0.86488
       O    15.11414   -6.01642    1.50456
      H1    15.59369   -5.37518    0.91293
       H    17.56879   -5.83178   10.96718
       O    18.32562   -6.39038   10.70075
      H1    17.91598   -6.90770    9.97021
       H    17.05495  -10.70756   11.67153
       O    16.77967   -9.79790   11.73571
      H1    16.20819   -9.67696   10.96727
       H    12.17981   -6.75822    7.78948
       O    12.54628   -7.50699    8.27928
      H1    11.70911   -7.98016    8.42078
       H    18.73103  -13.30704   15.79282
       O    17.83545  -12.95596   15.62608
      H1    17.85712  -12.83326   14.67404
       H    13.41498  -13.34226    6.91303
       O    13.36275  -14.04157    6.23902
      H1    12.44512  -13.86232    5.93695
       H    13.71244  -11.80742    9.96974
       O    13.66840  -11.76622   10.92648
      H1    13.23088  -10.82712   11.05684
       H    14.59549   -9.26396   14.86421
       O    13.99572   -8.51819   14.77082
      H1    14.59585   -7.87235   14.39639
       H    18.52650   -2.81853    8.74537
       O    19.36176   -2.44881    8.90941
      H1    19.48619   -2.57378    9.89199
       H    10.71679   -4.30182    7.59724
       O    11.41266   -4.98014    7.50674
      H1    11.85702   -4.55260    6.68252
       H    16.30037  -12.26966    9.53002
       O    16.73853  -12.08797   10.37815
      H1    17.68880  -12.05299   10.18054
       H    14.52394  -10.23960    3.13128
       O    15.38944   -9.86736    2.89685
      H1    15.83978  -10.72309    2.71219
       H    18.82493  -11.32867    6.08047
       O    18.59308  -11.52114    5.13378
      H1    17.97346  -12.26143    5.01864
       H    16.34989   -9.58250    4.32017
       O    16.85620   -9.18781    5.06032
      H1    17.59339   -9.76436    5.21124
       H    17.04260  -12.62535    2.79692
       O    16.98606  -12.01954    2.04477
      H1    17.73456  -11.45492    2.21201
       H    17.91471  -17.06227    3.58255
       O    18.29824  -16.26085    3.98089
      H1    18.33624  -16.55505    4.91120
       H    17.42885  -14.63317    4.14987
       O    17.07118  -13.78285    4.33654
      H1    16.29891  -14.06075    4.82989
       H    15.61051   -9.79168    6.49415
       O    15.00419   -9.54183    7.18503
      H1    14.13807   -9.82683    6.81853
       H    14.95411   -2.07983    7.46613
       O    14.05367   -2.35534    7.74732
      H1    13.64215   -1.49670    7.83015

