180
frame 8 | Written by MDAnalysis XYZWriter (release 2.4.3)
       H    17.17268   -2.56767   12.86904
       O    16.98982   -2.73631   13.83305
      H1    17.11795   -1.91301   14.32166
       H    13.66317    5.66943   15.62174
       O    13.46419    4.89151   16.22516
      H1    12.96535    4.26223   15.66789
       H    10.98158    6.74846   17.84032
       O    11.74584    6.46306   18.36705
      H1    12.01163    5.70539   17.83068
       H    17.38097    7.14601    9.72515
       O    16.42158    7.17221    9.81689
      H1    16.17033    6.74479   10.65732
       H    19.40747    5.97085   10.47343
       O    19.30057    5.80996   11.44865
      H1    19.61115    4.90075   11.55345
       H     9.89312    4.33454   16.13545
       O     9.68145    3.63411   16.74360
      H1    10.52973    3.33367   17.08351
       H    16.03938   -0.83295   18.22795
       O    16.82829   -0.28797   18.15003
      H1    16.55569    0.58939   18.43146
       H    17.94213   -3.89016   11.19472
       O    18.12153   -2.92707   11.35755
      H1    18.80332   -2.80212   12.00192
       H    17.97153    0.19137   15.31485
       O    17.39010   -0.60094   15.36519
      H1    17.08102   -0.56873   16.24783
       H    14.12583   -6.32840    9.54040
       O    13.80161   -6.71344    8.68713
      H1    13.85069   -6.01433    8.03264
       H    11.62738    2.71326   13.71674
       O    12.07845    2.46748   14.58393
      H1    12.99044    2.37765   14.21614
       H    15.10208    2.73673   12.38243
       O    14.15997    2.95126   12.26664
      H1    13.77548    2.23006   11.72552
       H    19.44139   -4.52852    7.35421
       O    18.87425   -3.96832    6.78583
      H1    18.10165   -4.04541    7.32238
       H    15.35252   -2.07397    9.75666
       O    15.35817   -2.13684   10.71772
      H1    16.18310   -2.65585   10.97210
       H    11.39209   -5.97505   14.44408
       O    11.54377   -6.43333   13.63349
      H1    10.87741   -7.11581   13.48174
       H    17.06199    3.48342   13.31629
       O    16.95650    3.99968   14.10757
      H1    16.42402    3.42417   14.69409
       H    13.50567   -1.69488   13.24774
       O    13.39509   -0.73230   13.25842
      H1    13.67983   -0.57802   12.30661
       H    15.89083    0.45938   14.99389
       O    14.99136    0.84592   15.03855
      H1    14.45967    0.33530   14.38759
       H    19.10339    2.35099    9.05721
       O    19.81148    2.38360    8.40727
      H1    19.24767    2.38364    7.60855
       H    13.98827   -8.11180   15.21133
       O    14.12660   -7.84049   14.29315
      H1    13.76196   -6.98396   14.11720
       H    13.02536   -4.67428   19.09684
       O    13.89189   -4.84135   18.83402
      H1    14.54757   -4.27333   19.21205
       H    17.31694   -7.61509   18.83757
       O    17.04556   -8.34751   19.45106
      H1    16.79206   -9.14087   18.91831
       H    13.99408    0.15999    7.50448
       O    14.13195   -0.79375    7.57563
      H1    14.84117   -1.01417    6.95860
       H    15.24273    7.19717   18.29456
       O    15.90224    6.67255   17.85943
      H1    15.76314    6.57483   16.92120
       H    16.12652    1.70128    9.11065
       O    15.51181    2.40295    8.90967
      H1    14.74731    1.99098    9.33823
       H    15.72518   -4.72525    7.44195
       O    16.40458   -4.38139    8.06386
      H1    16.26625   -4.88848    8.85497
       H    16.40932   -0.67396   11.20163
       O    16.89831    0.13134   11.13878
      H1    17.77214   -0.11115   10.91624
       H    16.51278   -3.70869   17.41053
       O    16.34755   -3.07612   18.11579
      H1    16.65817   -3.53076   18.93300
       H    18.25901    0.15190    7.16954
       O    17.55418    0.67194    6.67517
      H1    17.93123    1.54343    6.55066
       H    11.39901   -5.84119   17.19070
       O    11.13753   -5.30681   16.43268
      H1    11.90031   -4.71092   16.29746
       H     9.44364   -0.35289   12.79494
       O     9.89859   -0.93452   12.14039
      H1     9.23313   -1.08985   11.39316
       H    19.53781   -4.46208   15.17050
       O    18.80910   -4.60705   14.56598
      H1    18.42368   -3.72902   14.48525
       H    13.59157   -6.70025   11.82197
       O    14.38767   -6.16265   11.68986
      H1    14.26848   -5.38142   12.27835
       H    16.46286    2.64430   18.22361
       O    16.83889    2.26920   19.01861
      H1    17.77243    2.09153   18.95506
       H    11.61442   -1.78890   16.49520
       O    12.51047   -1.46787   16.27150
      H1    12.43352   -1.30585   15.29417
       H    20.19644   -8.11327   17.26776
       O    19.31146   -7.96553   16.85243
      H1    18.93193   -8.87755   16.91383
       H    16.88791    3.18934   10.86902
       O    17.13702    2.77830   11.71801
      H1    17.05164    1.82262   11.61186
       H    12.23302   -1.86468   10.30972
       O    12.07189   -0.89274   10.39721
      H1    11.29718   -0.86778   11.10225
       H    13.99158    5.95096   12.80180
       O    14.50798    5.71918   11.95764
      H1    14.54531    4.77155   12.13620
       H    13.27959   -3.29336   16.35594
       O    13.83598   -4.08673   16.27533
      H1    13.89631   -4.33333   17.23074
       H    17.52958   -8.43622   14.02084
       O    16.95019   -9.19460   14.17733
      H1    16.05988   -8.84665   14.01408
       H    15.65847   -4.61041   15.67422
       O    16.48524   -5.01923   16.04095
      H1    17.26540   -4.79450   15.54001
       H    10.84456    4.17236   11.95080
       O    10.56492    3.50172   12.60806
      H1     9.97414    2.94764   12.08690
       H     9.55768    1.74448   19.71956
       O    10.27589    1.69001   19.10927
      H1    10.97867    1.18164   19.49338
       H    17.78175   -6.30883   10.57238
       O    17.03183   -5.73179   10.72959
      H1    16.49158   -6.02029   11.47768
       H    15.01430    2.59683   16.07967
       O    15.58320    3.22600   16.54740
      H1    14.94426    3.93998   16.65231
       H    18.45984   -6.29087   13.59193
       O    18.75503   -7.10252   13.18687
      H1    19.71777   -7.00093   13.31713
       H    13.47257   -0.32497   17.16715
       O    14.12012    0.24310   17.59236
      H1    14.73153    0.38016   16.80192
       H    18.16133    6.59220   15.60397
       O    19.06184    6.85594   15.59892
      H1    19.26109    7.20819   16.50336
       H    14.00311   -4.06036   14.16390
       O    14.17435   -3.56447   13.37174
      H1    14.95141   -2.99578   13.47682
       H    11.88751   -3.82073   10.53893
       O    12.76119   -3.54872   10.13202
      H1    13.37360   -3.41754   10.81769
       H    12.11045    6.26234   14.45137
       O    12.98453    6.63283   14.35194
      H1    13.01315    7.56003   14.22219
       H    11.98934    4.30373   10.15357
       O    12.04057    4.93310   10.87085
      H1    12.90104    4.78488   11.22282
       H    16.45594    5.56660   14.64157
       O    16.41039    6.44676   15.07586
      H1    16.31432    7.15058   14.41261
       H    12.56744    1.94719    9.85410
       O    13.28853    1.45948   10.23982
      H1    12.94648    0.54716   10.22579
       H     9.11061    1.00585   14.89245
       O     9.58245    0.83655   14.06515
      H1    10.44517    1.17925   14.28388
       H    18.77850   -7.71142    8.91577
       O    19.05332   -7.48230    9.78108
      H1    18.34613   -7.73901   10.40300
       H    18.51116   -6.68591   17.57854
       O    17.84333   -6.27780   18.10525
      H1    17.17321   -6.01636   17.48024
       H     9.60383   -3.00603   14.15034
       O    10.52068   -2.64960   14.10571
      H1    10.42964   -2.04567   13.34559
       H    19.04646    2.02134   16.21909
       O    18.61403    1.93536   15.37847
      H1    18.16961    2.80021   15.25675

