180
frame 6 | Written by MDAnalysis XYZWriter (release 2.4.3)
       H    -1.42914    0.15712  -13.46931
       O    -2.36614    0.34162  -13.22343
      H1    -2.64733    0.96442  -13.90155
       H    -1.84384   -2.78558  -13.36590
       O    -2.15889   -2.24264  -14.12788
      H1    -2.32500   -1.36150  -13.72826
       H   -10.90478    7.60985  -10.52215
       O   -10.18830    6.85985  -10.57690
      H1   -10.15723    6.66762  -11.53588
       H    -3.08793    1.94744  -17.77791
       O    -2.39767    1.82918  -17.13095
      H1    -2.09558    0.95242  -17.38274
       H    -7.41901    0.90423  -18.19948
       O    -7.63046    1.06824  -17.28288
      H1    -8.03719    0.16470  -17.10557
       H    -4.50228    6.38604  -18.81498
       O    -4.17069    5.43970  -18.81217
      H1    -3.48848    5.57718  -18.16890
       H    -4.16632    5.14646  -12.98163
       O    -3.99501    4.74729  -13.92449
      H1    -4.86500    4.96374  -14.28708
       H    -3.20754    8.39535  -12.65589
       O    -2.28209    8.47354  -12.28053
      H1    -2.18949    9.40301  -12.14183
       H    -5.43416    1.52584  -14.44425
       O    -6.07183    0.86150  -14.72209
      H1    -6.27090    1.08421  -15.67375
       H    -6.15606    4.79350  -15.53910
       O    -6.26539    5.49025  -14.85039
      H1    -7.01125    5.17825  -14.31317
       H    -5.73755   -1.86588  -13.87265
       O    -6.48255   -1.74958  -14.52215
      H1    -6.24985   -0.80056  -14.65350
       H    -3.32813    8.06194  -15.60025
       O    -4.12175    8.61741  -15.30138
      H1    -4.95755    8.23177  -15.62626
       H    -4.64314   -1.37250  -15.85767
       O    -4.33486   -1.51118  -16.72994
      H1    -5.08157   -1.80457  -17.21547
       H   -10.32389    8.68060  -15.66636
       O    -9.78757    8.78125  -14.87515
      H1    -9.25782    9.55927  -15.08350
       H    -2.99603    4.64329  -10.47409
       O    -3.24907    3.70450  -10.31290
      H1    -2.59726    3.34007   -9.71065
       H    -6.99587    8.91892  -11.55191
       O    -7.24629    9.52914  -10.78984
      H1    -6.89314    9.02113  -10.01274
       H    -1.91896    1.48621  -12.06395
       O    -1.41047    2.16262  -11.56753
      H1    -2.13951    2.77718  -11.48742
       H    -5.33563   10.14635  -17.47536
       O    -5.60117   11.00315  -17.12159
      H1    -6.55607   10.92234  -16.83439
       H     2.27941    3.24430  -18.29601
       O     1.93994    3.50393  -17.39579
      H1     1.17644    4.04219  -17.64726
       H    -7.37518    8.19693  -15.00213
       O    -6.72784    7.95868  -15.68569
      H1    -6.82378    6.99067  -15.60449
       H    -7.31559    0.19460  -10.67749
       O    -8.23048    0.30834  -10.96005
      H1    -8.27164   -0.45999  -11.51391
       H    -8.46669   -2.73169  -12.01830
       O    -8.46485   -1.93582  -12.58793
      H1    -7.73067   -1.98166  -13.17989
       H    -7.76594   10.78871  -15.27709
       O    -8.20882   10.67169  -16.15281
      H1    -8.89142   11.41770  -16.06146
       H    -8.64304    3.43059  -12.91207
       O    -8.24292    4.31925  -12.92775
      H1    -9.09678    4.83332  -13.04008
       H    -1.18108   -1.38428  -17.42937
       O    -1.54036   -0.73018  -16.89725
      H1    -2.48441   -0.86133  -16.87284
       H   -11.11724    7.99879  -19.19359
       O   -10.41501    8.06988  -18.55442
      H1    -9.78561    7.42351  -18.96071
       H    -3.35028    2.22522  -15.46461
       O    -3.69639    2.17218  -14.55496
      H1    -3.51208    3.10866  -14.26658
       H    -0.11854    7.13957  -18.64313
       O     0.39541    6.94198  -17.87035
      H1     0.90678    7.76878  -17.77984
       H    -7.71133    8.10560  -18.80479
       O    -7.71556    7.28495  -18.22886
      H1    -7.52793    7.61547  -17.34418
       H    -4.76626    8.79236  -13.69877
       O    -5.04960    8.66368  -12.74226
      H1    -4.71709    9.40935  -12.32739
       H   -12.43123    4.16012  -18.18692
       O   -12.36482    5.04810  -17.87161
      H1   -12.99920    5.07636  -17.15685
       H    -2.60382   -4.39822  -15.86005
       O    -3.27961   -4.09427  -16.49237
      H1    -3.49974   -3.16049  -16.23266
       H    -2.41978   -2.54776  -18.55860
       O    -1.49572   -2.84853  -18.63717
      H1    -1.28083   -2.63036  -19.55912
       H    -5.25342    5.02591   -8.61138
       O    -5.86674    5.08955   -9.37850
      H1    -5.29151    5.18104  -10.12941
       H    -5.00409   -1.19772  -11.40574
       O    -5.15597   -0.67888  -10.59884
      H1    -5.19467    0.27363  -10.78826
       H    -8.28405    1.44743  -12.67516
       O    -8.32351    1.42184  -13.59861
      H1    -7.39675    1.25376  -13.81918
       H   -11.28139    0.37866  -17.63852
       O   -10.92329    1.18717  -17.30514
      H1    -9.96294    1.01429  -17.15047
       H   -10.01298   -2.48624  -17.12126
       O   -10.60996   -3.16281  -17.45883
      H1   -10.05143   -3.93501  -17.63278
       H    -6.72946    4.25341  -17.64177
       O    -5.82337    3.98715  -17.29968
      H1    -5.24592    4.65039  -17.68209
       H    -9.98672    6.66024  -14.27736
       O   -10.17164    6.14248  -13.45511
      H1   -10.79967    5.44424  -13.79402
       H    -6.27947    5.64838  -12.18425
       O    -5.43274    5.97023  -11.88657
      H1    -5.48367    6.87322  -12.22274
       H   -10.29780   -1.06857  -13.29129
       O   -10.65284   -0.40717  -13.84289
      H1    -9.92583    0.28734  -13.93644
       H    -6.61250   12.19902  -14.18857
       O    -6.57194   11.25417  -13.98183
      H1    -5.62352   11.16815  -13.94033
       H    -3.04490   11.01175  -14.55796
       O    -3.78888   11.50167  -14.91886
      H1    -3.96444   10.99391  -15.68865
       H    -0.58790    7.73394  -16.58047
       O    -1.19137    7.70225  -15.84029
      H1    -0.91136    8.51655  -15.42090
       H    -8.64132    3.29115  -17.13941
       O    -8.58296    4.01842  -17.79375
      H1    -9.22669    4.68201  -17.47475
       H    -2.20659    7.07409  -11.27207
       O    -2.33669    6.25398  -10.70504
      H1    -2.39989    6.68012   -9.79650
       H    -9.42184   -1.13949  -15.41682
       O    -8.77052   -1.33225  -16.06474
      H1    -8.03162   -1.63048  -15.53860
       H   -11.02528    5.60525  -16.88149
       O   -10.18148    5.80854  -16.48717
      H1    -9.88931    6.58224  -17.06525
       H    -5.71240    8.24790  -18.68604
       O    -4.79581    8.11644  -18.67989
      H1    -4.42638    8.75730  -19.40954
       H   -12.48315    3.25243  -14.21405
       O   -12.06412    3.91169  -13.59495
      H1   -12.45332    3.67767  -12.75118
       H     0.81830    5.34328  -14.65622
       O     0.02405    5.71626  -14.23742
      H1    -0.21858    6.33633  -14.93026
       H    -3.86035   -2.86024  -13.28870
       O    -4.64442   -2.52746  -12.80150
      H1    -5.18633   -3.36579  -12.59265
       H    -1.11327    4.55460  -15.67452
       O    -0.61027    3.80788  -16.06254
      H1    -1.27270    3.52202  -16.63638
       H    -7.28056   -3.49957  -17.79011
       O    -6.67636   -3.12004  -18.41842
      H1    -6.35369   -3.75552  -19.06816
       H   -13.69104    1.52471  -15.03347
       O   -13.13310    2.13869  -15.51243
      H1   -12.30653    1.66010  -15.67423
       H    -4.66401    2.90696  -11.33641
       O    -5.16842    2.19491  -11.69104
      H1    -6.03206    2.26554  -11.32762
       H    -0.15710    2.05851  -15.54235
       O     0.15176    1.15028  -15.18404
      H1    -0.29749    0.56973  -15.80294
       H    -3.27991    5.41775  -15.36905
       O    -2.94912    5.59144  -16.31000
      H1    -2.37544    6.35806  -16.00672
       H    -5.31831    2.51650  -18.39658
       O    -4.93928    1.64799  -18.64868
      H1    -5.35065    1.50519  -19.50550

