180
frame 5 | Written by MDAnalysis XYZWriter (release 2.4.3)
       H     8.84468   -1.81453   -1.17349
       O     8.45186   -2.24622   -1.93012
      H1     9.05374   -3.03673   -2.01507
       H     6.32960   -1.96411    3.01429
       O     6.04506   -1.33869    2.38166
      H1     6.64623   -0.53397    2.39571
       H     2.54982   10.51215   -2.13929
       O     2.78846    9.81373   -2.72428
      H1     2.66767    8.96293   -2.31907
       H     6.21622   -1.64950   -3.42190
       O     5.79018   -2.27255   -4.01856
      H1     5.71965   -3.07067   -3.44767
       H    -0.88950    3.94439    0.86035
       O    -1.29320    3.55272    0.04245
      H1    -1.77621    2.76615    0.31439
       H     0.39832    3.15028    2.48139
       O     0.12583    4.09531    2.25866
      H1     0.88832    4.50532    1.80872
       H     6.58253    3.28688    4.92959
       O     7.28173    2.67863    4.60366
      H1     7.62890    2.21401    5.38593
       H     6.72574   -2.47790    1.00411
       O     6.82376   -3.10244    0.30066
      H1     7.22884   -2.65459   -0.46478
       H     2.02476    5.09623   -0.05602
       O     2.73161    4.43429   -0.01677
      H1     2.37732    3.59263    0.21179
       H     1.47512    1.59335   -0.91072
       O     1.85277    1.70077   -0.04078
      H1     2.78450    1.40977   -0.04920
       H     4.04077    5.08920   -5.42027
       O     3.91715    5.89090   -5.95852
      H1     3.71200    5.63372   -6.87021
       H     2.73138    5.82149    6.71299
       O     3.30008    5.87212    5.95679
      H1     3.99424    5.21932    5.90957
       H     4.67224    0.04223    4.40378
       O     3.80158    0.21122    4.76808
      H1     3.91959    1.08869    5.09121
       H    11.01569    7.58792   -2.52072
       O    11.06513    7.57249   -1.56318
      H1    10.32885    6.94863   -1.33380
       H    10.28302    3.16893   -1.71609
       O    10.38738    4.11539   -2.00828
      H1    11.29407    4.19296   -2.25648
       H     2.13009   -2.51212   -1.06687
       O     2.66362   -3.01971   -1.74186
      H1     2.39932   -2.81586   -2.66619
       H     6.13594    5.01849    5.22546
       O     5.55864    4.38265    5.69238
      H1     5.82359    4.67233    6.58177
       H     9.76098    6.80326    4.99093
       O     9.28601    5.99029    5.15647
      H1     9.95708    5.23128    5.04811
       H     0.42775    7.22972    0.71169
       O     1.22546    6.74159    0.99024
      H1     1.65270    7.39271    1.56705
       H     5.17458    2.73456    0.19686
       O     5.83897    3.11520   -0.39173
      H1     5.35327    3.76380   -0.99683
       H     4.28276    4.00503   -3.66507
       O     4.21042    3.59421   -4.54633
      H1     3.52736    2.96172   -4.40453
       H     6.47673    0.64237   -2.44873
       O     5.71135    0.02041   -2.54261
      H1     5.50113   -0.28931   -1.69757
       H     1.86934    4.23127   -3.24344
       O     1.87792    3.44584   -2.66931
      H1     2.41982    3.75455   -1.93267
       H     1.85522    7.05597   -1.04877
       O     2.54196    7.14171   -1.79238
      H1     2.06582    6.71593   -2.49878
       H    10.53829    5.03638    1.10627
       O    10.49813    4.14502    0.84521
      H1    10.52662    4.25066   -0.13856
       H     2.86730   -0.19109    3.22323
       O     2.21940   -0.50470    2.58318
      H1     1.96216   -1.32158    2.98890
       H     7.28323    6.27644    4.10419
       O     6.71783    5.67241    3.64451
      H1     7.16490    5.40280    2.83214
       H     6.52175    9.04160   -1.02586
       O     5.64360    9.02484   -1.39304
      H1     5.61205    9.96599   -1.64544
       H     7.74104    7.02639   -1.25924
       O     8.51954    6.73086   -0.73613
      H1     8.12559    6.03837   -0.14620
       H     7.19433    1.49824    1.51503
       O     6.42971    1.39776    2.00973
      H1     6.60014    1.86406    2.80401
       H    10.44882    1.08751   -1.56944
       O     9.74757    1.68865   -1.25585
      H1     9.04125    1.62983   -1.90654
       H    12.92664    0.27486   -1.51474
       O    12.19106    0.34405   -2.10791
      H1    11.65499   -0.51221   -1.96390
       H     2.79699    8.49557    3.26762
       O     1.90019    8.54975    2.87440
      H1     1.95689    9.37891    2.44905
       H    12.42263    1.45644    1.13993
       O    11.76692    1.89659    1.66502
      H1    11.51059    2.73177    1.25802
       H     4.18563    0.32626   -4.38383
       O     3.25283    0.60010   -4.54300
      H1     2.70506    0.16926   -3.86390
       H     5.51664    4.88971   -6.40584
       O     6.15440    4.43336   -6.89456
      H1     6.55357    3.77134   -6.29253
       H    -1.18059    2.08541   -1.99471
       O    -0.63113    1.86317   -2.76242
      H1     0.16003    2.35482   -2.51364
       H     9.00522    5.50287   -6.38563
       O     9.38491    4.92083   -7.04982
      H1    10.31067    4.77868   -6.83023
       H     7.58794    2.42002   -3.74968
       O     7.65109    2.06176   -2.84658
      H1     6.99024    2.48345   -2.25294
       H     2.41348    1.04469   -6.27026
       O     2.11700    1.10997   -7.18566
      H1     1.52311    1.85354   -7.13583
       H     2.52023    5.94139   -4.67360
       O     1.80624    5.79504   -4.05848
      H1     1.03265    6.22404   -4.41443
       H     6.87338   -1.87841    5.94768
       O     6.56614   -1.31875    5.19910
      H1     5.72305   -1.72315    4.95872
       H     5.40724    7.92718   -5.83336
       O     6.15335    8.20259   -5.32399
      H1     5.83204    9.10820   -4.93086
       H     4.35048    5.54106   -1.29244
       O     4.91137    5.16341   -1.95336
      H1     5.59622    5.83137   -2.18860
       H     6.17935    7.58983   -2.30379
       O     6.64361    7.07952   -2.95440
      H1     6.38727    7.46802   -3.82400
       H     9.51026    6.88456    1.88752
       O    10.45741    6.78776    2.06325
      H1    11.11076    7.29698    1.61610
       H     3.94123   -4.01262   -0.91457
       O     4.32103   -4.39463   -0.15299
      H1     5.08880   -3.83416   -0.03201
       H    -0.62765    0.98045    2.09120
       O     0.08926    1.31265    2.69850
      H1     0.85308    0.73930    2.45182
       H    10.49240    0.33070    4.29966
       O    10.99670    1.19724    4.14747
      H1    10.99957    1.25103    3.16111
       H     9.09269   -0.05181   -3.83202
       O     9.83629   -0.63338   -3.72508
      H1     9.36454   -1.23272   -3.07852
       H     8.11523    2.00390   -6.37017
       O     7.86424    2.59126   -5.59094
      H1     8.50818    3.29711   -5.53863
       H     4.12036    2.46692    7.05350
       O     3.60576    2.58578    6.25073
      H1     4.04420    3.29543    5.83271
       H     5.19743    0.80012    0.61625
       O     4.54394    0.30935    0.11973
      H1     4.18630   -0.32893    0.78271
       H     4.13006    7.43289    4.73938
       O     4.44366    7.78486    3.90230
      H1     4.77511    6.99248    3.42093
       H     1.54573   -1.49803    1.17794
       O     1.45000   -2.22841    0.54857
      H1     0.55959   -2.07664    0.15277
       H     9.20240    6.86327   -3.96434
       O     9.64849    7.73307   -4.09267
      H1     9.12194    8.29221   -3.54763
       H     7.08218    4.22756    0.37642
       O     7.73636    4.73247    0.86669
      H1     8.56112    4.18943    0.89608
       H    10.47034    2.70425    4.50609
       O    10.01390    3.49666    4.84508
      H1     9.13255    3.36386    4.56155
       H     9.16706    4.54423   -3.27940
       O     8.66006    5.04003   -3.90895
      H1     7.94183    5.43122   -3.43577
       H     9.44153    0.18715    0.02231
       O     8.89880   -0.52892    0.36413
      H1     9.45373   -1.07178    0.97271

