180
frame 5 | Written by MDAnalysis XYZWriter (release 2.4.3)
       H     3.31077   13.09949   15.66426
       O     3.83988   12.74542   16.36396
      H1     4.60253   12.40018   15.88454
       H     9.53192   18.27628   11.83937
       O     8.79702   17.60975   11.70378
      H1     8.55944   17.46253   12.61691
       H    12.75389   20.12862   12.37720
       O    13.11626   19.60859   13.11886
      H1    12.98371   18.70929   12.83847
       H     5.25317   11.90856   14.21829
       O     5.95168   12.00423   14.85240
      H1     6.39164   11.12500   14.90287
       H    11.25463    8.45662   17.39767
       O    10.29443    8.32945   17.56593
      H1    10.09472    8.46968   18.55786
       H     4.02713   14.16506   17.46286
       O     3.84475   15.02239   17.80731
      H1     4.67290   15.38167   18.16099
       H    11.19062   19.38644   15.58330
       O    11.16063   18.52930   15.12792
      H1    12.09827   18.24953   15.09609
       H    10.28674   13.38640   17.27656
       O     9.66666   13.47847   17.98705
      H1    10.22197   13.86221   18.62164
       H    17.24924   18.63853   12.93538
       O    17.94314   18.07292   13.27543
      H1    18.82693   18.39754   13.07887
       H    12.05710   13.33001   16.42468
       O    12.64014   13.70681   17.07673
      H1    13.08032   12.97073   17.44490
       H    18.58020   11.45335   11.16329
       O    19.13904   11.56779   12.01684
      H1    19.38396   10.71122   12.30404
       H     8.97405   11.81956   17.93617
       O     8.47766   11.04062   18.31960
      H1     8.49885   10.44447   17.56767
       H    19.55108   17.29407   17.54380
       O    19.55041   17.46811   16.59916
      H1    18.87333   16.84981   16.30029
       H    10.03406    9.43964   13.86360
       O    10.38632    9.65000   12.99407
      H1     9.86236    9.09210   12.40082
       H    12.46461   11.35855    9.07881
       O    11.62934   11.40844    9.60595
      H1    11.67061   12.30597    9.99359
       H    14.93286   17.94678   19.62054
       O    14.31832   17.21170   19.51589
      H1    13.53009   17.51992   19.01145
       H    14.61058   17.23823    9.31865
       O    14.79073   17.10678   10.25685
      H1    15.53762   16.47549   10.22600
       H     5.71906   17.55290   12.28065
       O     5.58444   16.76383   12.79544
      H1     5.71916   16.11265   12.08009
       H     6.97698   16.25835   13.82379
       O     7.77893   15.98829   14.36356
      H1     7.84241   14.98760   14.18220
       H     8.98620   19.86058    9.72676
       O     8.55718   19.10663    9.26973
      H1     8.11785   18.58714    9.94203
       H    14.03867   10.05818   11.90014
       O    13.28060   10.40934   12.40335
      H1    12.49302   10.08290   12.05841
       H    10.24704   16.50140   10.54927
       O    11.16181   16.28691   10.24361
      H1    11.72647   16.45567   11.07145
       H    17.56382   18.61042   18.73861
       O    17.19569   17.73430   18.52861
      H1    16.94029   17.82202   17.62873
       H    11.70934   17.58235    8.98607
       O    11.62368   18.39616    8.47299
      H1    10.68705   18.54955    8.41619
       H    16.50966   14.34494    9.35112
       O    17.00206   15.17299    9.51695
      H1    17.23539   15.09929   10.40080
       H    19.64826    8.47528   18.06692
       O    19.17871    7.65417   18.06236
      H1    18.27452    7.89590   18.27178
       H    10.81297   14.20581   15.18350
       O    10.69824   13.21376   15.24582
      H1    11.24898   12.91009   14.48869
       H     9.48762    8.47609   16.03216
       O     8.95405    8.91120   15.36173
      H1     8.69026    8.15310   14.79153
       H    14.31498   14.42541   17.30262
       O    15.26239   14.86262   17.25013
      H1    15.17026   15.56686   17.88248
       H    14.57532    6.48592   19.58697
       O    15.23371    6.15806   18.91439
      H1    15.62582    6.93895   18.49162
       H    12.23165   19.26933   17.94689
       O    12.36918   18.37403   18.11496
      H1    11.45070   18.04826   18.20443
       H     9.05048   13.14075   14.32891
       O     8.23991   13.31228   13.75510
      H1     7.53830   12.85813   14.27661
       H    17.03413   17.75995   14.84354
       O    16.46142   17.75830   15.59757
      H1    15.54596   17.45881   15.33178
       H    19.29807   14.71475   13.39719
       O    18.54113   14.05569   13.60087
      H1    18.65672   13.28777   13.07113
       H    14.64727   11.26649   14.91755
       O    14.14585   10.42211   14.98989
      H1    13.59734   10.32020   14.20392
       H    12.69296   19.32085    9.59991
       O    13.54792   19.58231   10.00600
      H1    13.96788   18.77301   10.39528
       H     3.34674   17.58491   15.81647
       O     3.90828   17.78744   16.60139
      H1     3.53187   17.13854   17.20384
       H     7.58063   14.36234   18.11499
       O     6.81414   14.67594   18.57677
      H1     6.67516   13.96041   19.21724
       H    18.19314   14.57066   15.27017
       O    18.01049   15.07742   16.12424
      H1    17.14106   14.77366   16.44038
       H     8.82741   12.54948   12.21210
       O     9.32890   12.01075   11.62797
      H1     9.92441   11.48861   12.26187
       H    14.45047   12.18396   19.83849
       O    14.42460   11.84584   18.92644
      H1    15.25670   11.39447   18.78108
       H    15.21882   15.09874   13.14329
       O    14.42358   14.94634   13.66984
      H1    14.02160   14.09439   13.38083
       H    17.44802   12.05601   17.25372
       O    16.85659   11.28818   17.17402
      H1    16.37686   11.46203   16.34937
       H     7.97929   17.34095   19.15983
       O     7.02327   17.38203   19.08030
      H1     6.77841   16.42754   18.94271
       H     7.20960   17.47640   15.80335
       O     7.49437   18.08686   16.46478
      H1     6.92442   17.88416   17.26585
       H    18.87797   13.74876   16.92715
       O    19.12833   12.90579   17.35831
      H1    19.25834   13.13275   18.27476
       H     9.98297   16.44025   17.25436
       O     9.79793   17.03666   17.99060
      H1     9.15611   17.59402   17.58193
       H    10.90648   14.56627   10.38588
       O    11.14183   13.81069   10.89408
      H1    10.34707   13.29964   11.18091
       H    13.06619   16.40169   12.71453
       O    12.84861   17.08949   12.09517
      H1    13.62757   17.15194   11.52142
       H    14.09250   16.21269   14.88979
       O    13.89723   17.09172   15.27488
      H1    13.90732   16.92167   16.24068
       H     6.87766    8.69881   18.81763
       O     6.27000    9.40273   18.46953
      H1     6.81292   10.23671   18.49766
       H    16.17509    8.67184   14.52761
       O    16.49803    7.93043   14.03247
      H1    16.21947    7.97859   13.10712
       H    16.76517   13.14893   14.30630
       O    15.93394   12.91724   14.72997
      H1    15.46360   13.70951   14.95813
       H    11.97310   13.31486   12.23668
       O    12.37249   12.98405   13.04957
      H1    12.78998   12.21358   12.71542
       H     9.27953   15.87660   15.23572
       O    10.19066   15.88296   15.63466
      H1    10.59865   16.77805   15.48281
       H    16.97635   16.54726   12.28564
       O    16.85158   15.64004   12.24621
      H1    17.61019   15.24010   12.69737
       H    14.63030    7.27016   15.02510
       O    13.70798    7.16177   15.36502
      H1    13.63408    7.85449   16.06639
       H    16.65553    9.84779   17.99998
       O    16.38683    8.97729   18.40525
      H1    16.65211    9.12880   19.32871
       H     7.20816    9.17915   15.81407
       O     6.31688    9.32635   15.47367
      H1     5.76847    9.47448   16.23160
       H    13.32053    9.66480   16.74791
       O    13.04118    8.91109   17.31031
      H1    13.64704    8.86949   18.07247

