180
frame 7 | Written by MDAnalysis XYZWriter (release 2.4.3)
       H     8.06135  -15.86929    4.73687
       O     8.55805  -15.26875    5.32623
      H1     9.42553  -14.98086    4.87499
       H    10.98675   -7.16666    1.72806
       O    11.24593   -6.77358    2.56861
      H1    10.58848   -6.06194    2.67401
       H    11.04411   -8.35926    8.37041
       O    10.65525   -7.45936    8.15657
      H1    10.40685   -7.15226    9.02809
       H    16.66322  -14.02378    7.65952
       O    16.95570  -14.93722    7.44671
      H1    17.80139  -14.75725    7.01703
       H     8.98807  -10.99597    3.92588
       O     8.29841  -11.40987    3.36759
      H1     7.51735  -10.82031    3.63076
       H    11.48371   -5.26184   13.73118
       O    12.17862   -5.85781   13.47967
      H1    11.89368   -6.59769   14.03030
       H     8.36551  -10.49190    8.44893
       O     7.45187  -10.75978    8.14833
      H1     7.69291  -11.31510    7.37060
       H    18.51960   -8.07848   12.75181
       O    19.02845   -7.83554   11.95968
      H1    18.41122   -7.67857   11.20948
       H    16.40759  -14.21961   10.48691
       O    15.56477  -14.55975   10.79216
      H1    15.57026  -15.42130   10.35503
       H    12.09785   -9.35832   10.45209
       O    11.74656   -9.71414    9.61866
      H1    11.01558  -10.26779    9.96464
       H    13.43251  -12.25651   12.13578
       O    13.44082  -12.30009   13.12756
      H1    13.37093  -13.31575   13.27695
       H    11.11903  -16.02456   11.07821
       O    11.62731  -16.19603   11.83120
      H1    12.33303  -15.57862   11.79087
       H    10.78640   -5.43504   11.02396
       O    10.19219   -6.24262   11.00543
      H1    10.63445   -6.89386   11.57643
       H    13.26726   -9.83148    8.48081
       O    14.04261   -9.67673    7.98621
      H1    14.17932   -8.72298    7.91224
       H    12.71426   -3.54399   10.13752
       O    11.99938   -3.99257   10.61061
      H1    11.78546   -3.22229   11.13835
       H    15.16353   -6.39645   12.99917
       O    14.94456   -6.67076   12.11126
      H1    14.33550   -5.97376   11.83671
       H     9.52196   -9.35773    5.44338
       O    10.11668   -9.98667    4.99758
      H1    10.82556   -9.32911    4.76821
       H    18.54464   -7.96485   15.11641
       O    17.99019   -8.48130   14.50724
      H1    17.14267   -8.07819   14.42713
       H     8.14849  -10.20404   11.16222
       O     8.64804   -9.51881   10.64790
      H1     7.99815   -8.79972   10.47695
       H    13.70650   -4.70120   13.59290
       O    14.22976   -4.10560   13.01377
      H1    13.55368   -3.83523   12.32420
       H    18.54515  -11.00298    8.79260
       O    18.56096  -10.87073    7.86121
      H1    18.14087   -9.99326    7.79080
       H    10.34185   -9.75775    2.11009
       O    11.13667  -10.09051    1.68966
      H1    10.68028  -10.50278    0.95642
       H    16.59534   -8.30224    7.12936
       O    17.10510   -8.59814    7.87315
      H1    17.99800   -8.24390    7.64322
       H    15.91284   -4.19981   11.74436
       O    16.09587   -4.16285   10.81783
      H1    16.12933   -5.03360   10.44852
       H     7.75027  -13.60423    5.68995
       O     7.22565  -12.82246    5.47057
      H1     7.64297  -12.37023    4.73957
       H    15.79337  -16.15573    8.66068
       O    16.04468  -16.70155    9.40593
      H1    15.37595  -17.40505    9.33632
       H    15.24102   -7.78372    2.98032
       O    15.43476   -6.86478    3.14324
      H1    15.84917   -6.57111    2.28949
       H    11.96126  -13.88017    9.47335
       O    12.59232  -14.60249    9.76382
      H1    13.28740  -14.15613   10.27613
       H    13.62082  -14.22120    4.65717
       O    14.34245  -14.73259    4.21836
      H1    13.99435  -14.81733    3.27566
       H    12.42777   -7.71195    5.51629
       O    12.24199   -8.28204    4.72471
      H1    11.89323   -7.56893    4.14666
       H     9.47565  -12.52491    6.40356
       O    10.05886  -12.00909    6.92864
      H1    10.22561  -11.29917    6.25626
       H     8.86795  -14.33433    9.78636
       O     8.70099  -13.74259   10.56274
      H1     8.04542  -14.25324   11.03340
       H    15.18348  -11.52264   13.47198
       O    16.08778  -11.36047   13.64233
      H1    16.26434  -10.66207   12.97434
       H    14.14478  -14.76956    7.04432
       O    13.88327  -15.63098    7.34816
      H1    13.34402  -15.26341    8.11188
       H    13.71968   -8.07384   10.09881
       O    13.86316   -8.74617   10.77616
      H1    14.04101   -8.24636   11.59172
       H    11.60618   -7.60164   16.40077
       O    12.45616   -7.93665   16.10084
      H1    12.32614   -8.65591   15.45570
       H     8.91289  -11.66325   14.52919
       O     9.12648  -11.91280   13.60148
      H1     8.24692  -11.80404   13.17498
       H     7.47387   -5.68996    9.71719
       O     7.69033   -6.50371   10.21190
      H1     8.57343   -6.35942   10.60820
       H    11.02077   -9.74916   12.91455
       O    10.93074   -8.89849   12.42232
      H1    10.08229   -9.01893   11.99427
       H    13.43370   -5.57404    8.67455
       O    13.26521   -6.36736    9.28080
      H1    12.59540   -5.99147    9.90909
       H    11.18322  -15.45149    3.86825
       O    11.25509  -14.59376    4.25734
      H1    11.61667  -14.11661    3.51151
       H    16.26583   -7.37369   10.66792
       O    16.92130   -7.03043   10.02213
      H1    16.91891   -7.72384    9.36497
       H    15.74767  -11.14309   10.60075
       O    16.08219  -10.28657   10.86878
      H1    15.28645   -9.80305   10.70312
       H    12.08413   -5.78390    6.14104
       O    12.75874   -6.42991    6.45413
      H1    12.32965   -6.67264    7.30977
       H    10.12048  -12.82065    9.98559
       O    10.77291  -12.41733    9.41865
      H1    10.27732  -12.08017    8.69605
       H    13.55379  -12.01398    6.02075
       O    13.17916  -12.79866    6.44017
      H1    12.37897  -12.46950    6.82728
       H    13.28856  -10.91204   10.25715
       O    13.54088  -11.87040   10.34537
      H1    12.62089  -12.19384   10.20943
       H    15.67771   -6.73513   15.40124
       O    15.28037   -7.27662   14.72010
      H1    14.37947   -7.26958   15.05854
       H    13.93424   -2.25254    6.10219
       O    12.97906   -2.51289    6.32018
      H1    13.17315   -2.88908    7.15326
       H    12.26075  -11.34361   13.60763
       O    11.73989  -10.66374   14.08099
      H1    10.87818  -11.15930   14.02646
       H     9.84957   -4.60815    5.76576
       O    10.76006   -4.66970    5.57098
      H1    10.89328   -4.02324    4.79827
       H    15.44993  -11.94613    8.15963
       O    16.27014  -12.45552    8.22065
      H1    16.96013  -11.76140    8.14446
       H    18.97143  -12.84755    6.95662
       O    18.90908  -13.64411    6.43745
      H1    18.19116  -13.62241    5.79347
       H     7.68999   -7.18364    4.71606
       O     7.51470   -7.18282    3.80159
      H1     6.82700   -6.54804    3.65010
       H     7.86090   -8.52705    6.82599
       O     8.39462   -8.28171    6.08950
      H1     9.05633   -7.64138    6.40091
       H    13.30571   -8.86176    3.39967
       O    14.11629   -9.27381    2.98792
      H1    14.17039  -10.04802    3.48873
       H    13.96138   -5.59261    3.02031
       O    13.25653   -5.03366    2.64135
      H1    12.65271   -5.78399    2.49777
       H    17.15876  -13.91496    3.56735
       O    16.86098  -13.31229    4.30582
      H1    15.89637  -13.60440    4.30805
       H    15.54011   -6.67183    4.94144
       O    15.37180   -6.88221    5.87476
      H1    14.44693   -6.72426    5.95280
       H    14.85710   -3.66059    9.48083
       O    14.16889   -3.26268    8.94084
      H1    14.61798   -2.40989    8.78201

