180
frame 7 | Written by MDAnalysis XYZWriter (release 2.4.3)
       H    -2.30080   -3.71256   -0.03393
       O    -2.63850   -4.48666    0.46414
      H1    -3.47625   -4.10460    0.88615
       H     6.30577   -4.22960   -3.30526
       O     5.99119   -5.06000   -2.85351
      H1     5.09331   -4.89702   -3.03715
       H     0.56170   -2.94143    7.15975
       O     0.48363   -3.83403    6.80693
      H1     1.16951   -4.30371    7.37883
       H     0.05430   -0.22092    0.06064
       O    -0.68651   -0.68166    0.48848
      H1    -1.33764   -0.45156   -0.17683
       H    -3.10833   -5.40515    4.83944
       O    -3.98653   -4.95053    4.77384
      H1    -4.43111   -5.20696    5.61664
       H     8.77828   -8.68018   -2.07961
       O     8.55828   -8.57079   -1.16729
      H1     7.65832   -8.96795   -1.15632
       H     5.52057   -2.42678    2.88570
       O     4.81938   -2.77083    2.29242
      H1     5.17201   -2.42968    1.43873
       H    -3.30614   -8.27456   -2.13700
       O    -2.50600   -7.91960   -2.46110
      H1    -2.79254   -7.04693   -2.82054
       H     0.59729   -6.13492   -0.78909
       O     1.23333   -5.45211   -0.84669
      H1     0.61002   -4.71600   -0.76813
       H     6.79932   -6.38937   -4.58611
       O     7.53291   -6.36653   -5.20340
      H1     7.48872   -7.28248   -5.57442
       H     8.98807  -10.99597    3.92588
       O     8.29841  -11.40987    3.36759
      H1     7.51735  -10.82031    3.63076
       H     0.78438   -9.01157    7.74414
       O     1.11424   -8.33569    7.06993
      H1     0.39290   -7.72197    6.98884
       H     0.81149  -12.10884    0.14287
       O     0.07293  -12.66841   -0.09109
      H1    -0.34136  -12.72767    0.75673
       H    -2.39568   -7.61679    4.96079
       O    -2.64053   -8.22290    5.71022
      H1    -2.31770   -7.82527    6.50076
       H    -0.95632  -10.91204    5.30920
       O    -0.11457  -10.61643    4.93005
      H1     0.08063   -9.97835    5.64016
       H     2.45103   -5.26695   -2.43049
       O     3.19186   -4.74367   -2.73406
      H1     3.22062   -4.04658   -2.07936
       H    -0.49317   -5.42805    7.27087
       O    -0.89183   -6.29605    7.14013
      H1    -1.15335   -6.51135    8.06950
       H     2.96659   -3.15368    3.72214
       O     2.27208   -2.73459    4.22845
      H1     2.24633   -3.13207    5.10314
       H     3.64246   -1.52268   -0.90844
       O     3.67340   -2.50275   -1.01367
      H1     4.67710   -2.58791   -1.12136
       H     5.48909   -9.61500    7.33286
       O     5.30315   -8.86314    6.79349
      H1     5.69120   -9.08983    5.93005
       H     7.23588   -4.44777    5.95723
       O     7.05091   -4.26837    5.03122
      H1     7.81863   -4.60995    4.57760
       H     6.69864   -1.10259    4.48150
       O     6.90722   -1.59363    3.69755
      H1     7.02582   -2.49713    3.97762
       H     7.82048   -5.73219   -0.10127
       O     8.07583   -5.84440    0.78997
      H1     7.19656   -5.76636    1.24468
       H     3.32131   -7.46837    2.84276
       O     4.00837   -8.04058    3.25174
      H1     3.82760   -7.73377    4.19812
       H     2.92907   -5.52923   -4.91642
       O     2.25787   -5.52305   -5.61109
      H1     1.52677   -5.96525   -5.13890
       H     5.02086   -7.84406   -5.29255
       O     4.46294   -7.31419   -4.67245
      H1     4.13761   -7.98511   -4.07162
       H     5.02641   -5.66585    2.15376
       O     5.84793   -5.22924    2.47081
      H1     5.69462   -4.30488    2.26290
       H    -1.78135   -7.26209   -0.92558
       O    -1.05673   -6.86192   -0.50141
      H1    -1.55028   -6.16871   -0.06652
       H     5.84351  -11.43635   -0.53690
       O     5.41509  -12.31344   -0.44463
      H1     6.12159  -12.76007    0.06501
       H     0.96762   -8.87680    0.00569
       O     1.16005   -9.43779   -0.81571
      H1     1.77868  -10.07643   -0.39482
       H     0.10767   -9.24002   -2.18193
       O    -0.28254   -9.25757   -3.10437
      H1    -1.12856   -8.88208   -2.88799
       H     5.42903   -6.36116   -1.55185
       O     4.98861   -6.97890   -0.89328
      H1     4.57415   -6.30271   -0.33798
       H    -2.69554   -0.58425    3.91939
       O    -2.02134   -1.18275    4.21957
      H1    -2.16380   -1.96591    3.66606
       H     5.62161   -9.46715    3.64500
       O     6.43221   -9.50122    4.17015
      H1     6.79262   -8.61201    3.92284
       H     2.68842   -4.29453    8.44530
       O     2.49473   -5.11164    7.94359
      H1     3.23213   -5.31369    7.32907
       H     0.20258   -0.71683    2.10648
       O     0.91052   -0.23823    2.58605
      H1     0.78446   -0.50394    3.50053
       H    -0.79469   -3.78201    2.70574
       O    -1.77835   -3.76734    2.83029
      H1    -2.06184   -3.87842    1.88877
       H     7.17645   -2.47891   -0.80399
       O     6.50823   -2.93529   -0.28168
      H1     6.59014   -3.84608   -0.54585
       H     6.75355   -2.99979   -5.14192
       O     6.85165   -2.92232   -4.14649
      H1     7.78450   -3.17215   -4.02640
       H    -1.85697   -4.45645   -2.91977
       O    -2.60370   -5.02655   -3.18302
      H1    -3.18158   -4.35850   -3.56050
       H    -0.52790   -7.18732   -5.99256
       O    -0.24726   -6.76724   -5.13292
      H1    -0.38313   -7.48514   -4.46456
       H     0.84421   -4.67288    3.25087
       O     0.91335   -4.09819    2.49022
      H1     1.48556   -3.38883    2.75748
       H     5.60485   -5.90346    6.08119
       O     5.79385   -6.08646    6.99960
      H1     5.41097   -6.98972    6.99969
       H    -1.43895  -11.35874    2.06695
       O    -0.61834  -10.80868    2.14390
      H1    -0.50328  -10.87802    3.08567
       H     1.96492   -3.66194   -3.61561
       O     1.05931   -3.35423   -3.66603
      H1     1.00820   -3.34291   -4.66296
       H     2.57589   -5.43923    0.43803
       O     3.17378   -5.45728    1.21901
      H1     2.54621   -5.18647    1.91229
       H     2.86343   -7.50197    6.27532
       O     3.27595   -6.71534    5.72449
      H1     2.48911   -6.52855    5.21639
       H     3.95401   -1.07137    2.26451
       O     3.47232   -0.23457    1.97476
      H1     2.61683   -0.26344    2.45603
       H     3.53983   -8.22647   -1.91643
       O     3.48100   -8.90363   -2.63435
      H1     2.55907   -9.18194   -2.54390
       H     3.37069   -0.23599    0.43442
       O     3.11892    0.09329   -0.53921
      H1     3.95533    0.64327   -0.65730
       H     5.56049   -9.16278   -0.27530
       O     5.93379   -9.66071   -0.97651
      H1     5.28895   -9.42805   -1.67228
       H     0.63252   -4.76748    5.51160
       O     0.84399   -5.43186    4.70555
      H1     0.28774   -6.17339    4.91277
       H    10.49449   -6.22156   -0.02383
       O    10.47341   -7.22696    0.05756
      H1     9.53533   -7.46793   -0.12420
       H     3.41490  -11.42181    0.67776
       O     2.58844  -11.55717    0.27013
      H1     2.84997  -12.24215   -0.33992
       H     0.71016    1.12151   -1.96237
       O     0.77921    1.11090   -1.00787
      H1     1.66208    0.76611   -0.86211
       H    -1.02390   -7.24314    2.94494
       O    -1.59448   -6.70337    3.41797
      H1    -1.73485   -5.89103    2.96013
       H     7.68999   -7.18364    4.71606
       O     7.51470   -7.18282    3.80159
      H1     6.82700   -6.54804    3.65010
       H     9.00427   -4.99314    2.05710
       O     9.13406   -5.22555    3.00511
      H1     8.85014   -6.13248    3.07672
       H    -0.37337   -8.89854    2.06316
       O    -0.03781   -8.07090    1.65935
      H1    -0.60270   -7.88139    0.91036
       H     0.41175   -2.91982   -1.54839
       O    -0.31140   -3.03439   -0.91761
      H1    -0.21127   -2.39883   -0.23249

