180
frame 5 | Written by MDAnalysis XYZWriter (release 2.4.3)
       H   -12.07295   10.56611    3.74006
       O   -12.59676   11.36163    3.60217
      H1   -13.03589   11.28629    2.72906
       H   -16.51632    6.32000    9.25756
       O   -16.62270    6.66544   10.14451
      H1   -17.60337    6.63127   10.38903
       H   -16.10602    4.81203    6.71242
       O   -15.50830    4.07896    6.95565
      H1   -15.22757    4.12281    7.89250
       H   -13.14085    0.13280    4.05600
       O   -14.08506    0.10287    4.17674
      H1   -14.29254    0.88754    4.63049
       H   -18.93403   11.09601    6.30202
       O   -19.34413   11.15127    7.19824
      H1   -19.15036   11.99227    7.61274
       H   -13.37202    3.56533   12.79918
       O   -12.93242    2.88202   12.33256
      H1   -12.25074    2.41710   12.82788
       H   -17.29853    2.65182    7.23326
       O   -17.97790    2.17860    7.70854
      H1   -18.43288    2.71636    8.34552
       H   -13.82210   10.33023    7.15487
       O   -13.26253   10.11956    7.94643
      H1   -13.85722    9.67363    8.59963
       H   -10.22919    8.07076    9.59077
       O   -10.67234    7.49200    8.93680
      H1   -11.64794    7.61879    9.07853
       H   -19.96252    5.61917    2.28657
       O   -19.04898    5.81239    2.44156
      H1   -18.56066    5.74322    1.58519
       H   -15.54812    3.94688   10.23893
       O   -14.93516    4.04571    9.46600
      H1   -14.57644    3.16429    9.43099
       H   -14.16999    4.85104   14.63164
       O   -13.90431    5.05114   13.69692
      H1   -13.06573    5.45164   13.68143
       H   -15.50280    8.28155   10.11985
       O   -14.70669    8.81483    9.96084
      H1   -14.63401    9.42259   10.73165
       H   -17.12951    9.63415    8.90974
       O   -17.62581    9.31418    8.15547
      H1   -17.92853   10.13924    7.75520
       H   -19.32429    1.22151    4.31626
       O   -18.38521    1.41102    4.11607
      H1   -18.34616    2.34988    4.26495
       H    -9.02635    3.59866    6.51941
       O    -8.31353    3.51947    5.80253
      H1    -7.85921    2.75792    6.12314
       H    -9.89567    6.78588    5.09488
       O    -9.40428    7.00943    4.29242
      H1    -8.55568    7.29817    4.70822
       H   -10.16202    4.27388    7.58548
       O   -10.01822    3.57334    8.25853
      H1    -9.10946    3.66075    8.58116
       H   -18.00052    2.50051   14.31279
       O   -17.81441    3.41041   14.06474
      H1   -17.15175    3.34064   13.40996
       H   -15.13157    3.23028    3.72098
       O   -14.58454    2.86337    4.46582
      H1   -15.02225    3.13547    5.29501
       H   -11.36475   10.15581    7.53942
       O   -10.59218    9.94942    6.94110
      H1   -10.89938   10.01402    6.01411
       H   -11.36727    1.50388    2.41088
       O   -11.57579    1.94237    1.53606
      H1   -11.06571    1.36179    0.94245
       H   -14.10822   -0.54598    2.33725
       O   -13.84282   -0.97885    1.52984
      H1   -14.30991   -1.83349    1.61375
       H   -16.15542    1.47246   12.58620
       O   -16.41951    2.03514   11.86954
      H1   -16.81642    1.51147   11.19955
       H   -11.74131   -1.23276    3.75026
       O   -11.39934   -0.31799    3.61861
      H1   -10.76416   -0.05612    4.30309
       H   -17.99257    0.78331    8.99397
       O   -17.94481    0.21065    9.78513
      H1   -17.77259   -0.69946    9.42540
       H   -12.82672   -3.42775    3.65664
       O   -12.64428   -2.60375    4.10901
      H1   -13.47509   -2.09919    4.44198
       H   -13.48181    2.02807   10.77167
       O   -13.56341    1.53106    9.90530
      H1   -13.49242    0.63691   10.13273
       H   -10.59358    6.31732    7.43035
       O   -10.64367    5.80970    6.61005
      H1   -11.64605    5.77902    6.47560
       H   -18.60299    7.07747    3.84449
       O   -18.73469    7.42732    4.75621
      H1   -17.83119    7.69605    4.99385
       H   -15.07979    3.62125    1.70109
       O   -15.96663    3.52197    2.07379
      H1   -16.41958    2.76061    1.64227
       H   -14.51101    8.49157    0.22638
       O   -13.80350    8.85388   -0.23331
      H1   -14.11365    8.97115   -1.15917
       H   -13.02934    4.78925    3.29447
       O   -13.55818    5.01398    2.54728
      H1   -12.98435    5.08490    1.82335
       H   -15.99982    6.64937   11.87297
       O   -15.87472    6.89996   12.79809
      H1   -15.21887    6.23371   13.12624
       H   -17.73433   -1.81268    7.92307
       O   -17.19049   -2.22972    8.61477
      H1   -16.26577   -2.25274    8.28161
       H   -11.00874    1.83862    7.76709
       O   -11.22439    1.08554    7.17706
      H1   -12.02190    0.74146    7.56415
       H   -13.84844   -1.12945    9.00585
       O   -13.37284   -1.13939    8.18942
      H1   -12.77282   -1.91965    8.28863
       H   -17.80705   11.45223    4.16146
       O   -18.40246   10.89313    4.67677
      H1   -18.77098   10.18026    4.15175
       H   -13.20454   -1.54676   11.73664
       O   -13.82017   -1.30523   11.04470
      H1   -14.72863   -1.42078   11.39137
       H   -11.01426    3.95782    9.73833
       O   -11.25742    4.46869   10.54249
      H1   -11.97237    3.97834   10.92004
       H   -19.68381   -2.03437    7.02364
       O   -19.10613   -1.28936    7.13019
      H1   -18.70409   -1.23125    6.25355
       H   -10.71358    4.73660    2.25671
       O   -10.92621    4.68577    1.28414
      H1   -11.19659    3.74742    1.27701
       H   -19.93180    6.22211   11.09564
       O   -19.23795    6.87488   11.13571
      H1   -19.36414    7.29873   12.07110
       H   -17.27730   -0.32321    4.48834
       O   -17.32665   -1.08682    5.07459
      H1   -17.28761   -1.83631    4.43931
       H   -18.41052    4.80605    3.83981
       O   -17.84132    4.25357    4.48166
      H1   -17.14003    3.92981    3.91399
       H   -17.05923    7.30527    7.56626
       O   -17.07594    6.40924    7.39841
      H1   -18.04426    6.33048    7.32822
       H   -13.67925    4.43884    5.29851
       O   -13.34818    5.35699    5.47032
      H1   -13.77629    5.69895    6.28935
       H   -14.19219    1.50475   -0.32629
       O   -13.93294    2.17175    0.35058
      H1   -13.13857    1.79324    0.72314
       H   -12.45690   10.54663    9.55655
       O   -11.86741   10.54210   10.30921
      H1   -12.36772   10.33869   11.10848
       H   -16.27827   13.67275    5.79307
       O   -15.42151   13.48407    6.19975
      H1   -15.28527   12.56502    6.02908
       H   -14.67544    6.49284    2.18534
       O   -15.15190    7.38526    2.14241
      H1   -15.83260    7.06882    1.53958
       H   -15.06731    8.01853    5.05528
       O   -15.67380    8.55383    4.48624
      H1   -15.54556    8.05516    3.66095
       H    -9.75021    4.99759    3.90450
       O   -10.24276    4.16532    3.86989
      H1    -9.63476    3.50939    4.18208
       H   -15.17745   10.19772    5.21412
       O   -14.52778   10.83343    5.52041
      H1   -13.95502   11.04741    4.75999
       H   -11.68366    1.81544   10.46934
       O   -10.83389    1.34252   10.70877
      H1   -10.86024    1.04680   11.61435
       H   -16.86919    0.62698    0.30968
       O   -16.74327    1.58174    0.19564
      H1   -15.83226    1.86927    0.24223
       H   -19.53742    3.77174   -0.65972
       O   -19.67525    3.11637    0.02121
      H1   -19.20576    2.32281   -0.32504
       H   -15.75961   -1.73997    5.86869
       O   -15.15234   -2.07925    6.49918
      H1   -14.44093   -1.45253    6.56917
       H   -16.94446    4.87750    0.92164
       O   -17.12143    5.69007    0.41755
      H1   -17.68563    5.46253   -0.35677
       H   -13.92854    7.38914    8.67778
       O   -13.54180    6.69644    8.10825
      H1   -13.33503    5.95233    8.71734

