180
frame 9 | Written by MDAnalysis XYZWriter (release 2.4.3)
       H     6.32160   -0.78765    5.27627
       O     6.48549   -1.64603    5.72185
      H1     6.05645   -1.43902    6.56906
       H     8.76982    8.17646    1.21677
       O     9.31690    8.17297    2.02461
      H1     9.14331    8.98436    2.51400
       H    11.69007    6.33757    8.64023
       O    12.40957    5.85749    8.13822
      H1    12.58387    6.43364    7.36325
       H    10.02293   10.16716   10.28819
       O     9.41208    9.56798   10.76548
      H1     8.59595   10.05520   10.65781
       H    13.39444    0.92487   12.16981
       O    12.85768    0.83319   11.39514
      H1    12.66253   -0.09228   11.30426
       H    13.76550    6.54630   11.14132
       O    14.16342    6.20916   10.31204
      H1    13.41868    6.03959    9.72243
       H     9.02690    5.01206   10.98737
       O     9.98905    4.87561   10.80606
      H1    10.08513    3.89144   10.70105
       H     9.89718    9.69270    5.18485
       O    10.51364    9.12956    5.67955
      H1     9.93471    8.31736    5.76980
       H    15.28215   -0.84575    9.52984
       O    15.12927   -0.52017    8.62259
      H1    14.50508    0.22678    8.71620
       H     8.22098    3.14849    6.19768
       O     7.52150    2.58937    5.75393
      H1     7.96368    2.56563    4.90481
       H     9.58801   -0.61791   11.61951
       O     9.31680    0.19725   12.09800
      H1    10.01268    0.10955   12.81881
       H     5.39387    5.76881   10.18552
       O     5.75483    5.76583    9.33796
      H1     5.47350    4.91399    8.96197
       H    14.98851   -0.77081    5.85998
       O    15.41015   -1.63026    5.54708
      H1    15.14491   -1.69147    4.61712
       H    10.65344    6.28129   13.59653
       O     9.82296    6.75008   13.39902
      H1    10.16395    7.65418   13.60667
       H     4.65390    2.80943    7.59337
       O     4.49585    3.75500    7.53002
      H1     3.63797    3.74952    8.03758
       H    13.70226    1.79856   10.01350
       O    13.82923    1.91939    9.06441
      H1    14.55803    2.54311    9.04433
       H     6.10223    6.48470   11.90196
       O     5.12403    6.47976   12.02134
      H1     4.84113    5.54634   12.09024
       H    11.99958   -0.82092    7.00838
       O    11.38262   -0.39740    7.59665
      H1    10.72637    0.00307    6.98881
       H     7.33152    1.21278   12.75051
       O     6.77842    1.08637   13.54041
      H1     6.38567    1.98608   13.52517
       H     9.18581   -2.23073    3.06577
       O     9.61717   -2.06600    3.89107
      H1    10.47819   -2.44774    3.75060
       H     8.30351    7.42547   10.87201
       O     7.80585    7.00462   11.57916
      H1     8.51550    6.85653   12.26568
       H    10.15578    8.01714    9.78718
       O    10.30185    7.18279    9.34467
      H1    10.18466    6.51049   10.00846
       H    11.96668    6.92081    2.68547
       O    12.84165    6.91871    3.08305
      H1    13.44735    7.51064    2.53738
       H    15.42235    2.70583    2.60853
       O    15.46267    2.92799    3.54483
      H1    14.60013    2.65208    3.83251
       H    12.77438    4.31866   -0.01405
       O    12.01175    4.00496    0.59622
      H1    12.49813    3.68222    1.33877
       H    11.51897    4.11420   13.99021
       O    11.93809    4.69019   13.34611
      H1    11.38679    4.35665   12.64803
       H     5.96698    8.69279    7.41090
       O     4.98472    9.02504    7.38617
      H1     5.09748    9.46527    6.51851
       H    10.54568    4.69413    4.70324
       O    10.78266    4.67299    3.75449
      H1    11.56607    4.04008    3.75144
       H     9.44649    5.10547    6.60444
       O     9.69928    4.19893    6.34238
      H1    10.38485    3.95399    7.06445
       H     8.06268    7.05785    2.89966
       O     7.39867    6.42614    3.13526
      H1     7.22998    6.11400    2.28078
       H    15.01266    4.48945    3.13529
       O    15.00759    5.31426    2.59720
      H1    14.20152    5.75247    2.86218
       H     6.70147    1.66743    7.18545
       O     5.94314    1.51112    7.73232
      H1     6.29747    1.18520    8.57795
       H    11.45704    5.92127    0.99299
       O    11.30376    6.80694    0.62717
      H1    10.66456    7.14633    1.29743
       H    12.71445    2.80559    7.95641
       O    12.36641    3.33713    7.20469
      H1    12.47176    4.24234    7.55455
       H    11.24815    1.65337   10.57607
       O    10.43288    2.23590   10.59269
      H1     9.92231    1.82297   11.28022
       H     9.18014    1.03006    1.22190
       O     9.73757    0.50222    0.64786
      H1    10.60300    0.67319    1.18583
       H    12.11151    7.89980    5.97381
       O    12.96625    7.44781    5.95801
      H1    13.10567    7.25204    5.01004
       H     9.57355   -1.18404    7.38658
       O     8.67329   -1.19006    7.78105
      H1     8.20915   -1.40960    6.95822
       H     4.04785    7.58746    7.43825
       O     3.28965    6.94203    7.27229
      H1     3.69742    6.17017    6.92486
       H    12.07365   10.06296    4.82479
       O    12.68551   10.02375    4.06899
      H1    12.45060    9.17072    3.68478
       H     9.57886    3.25394    3.03456
       O     9.11820    2.35854    3.06529
      H1     8.36728    2.60506    2.46435
       H     9.61568    7.14466    7.59335
       O     9.48601    6.90958    6.64578
      H1     8.52514    6.92995    6.56914
       H    13.75658   11.14391    7.78694
       O    13.55646   10.30492    8.30684
      H1    13.92649    9.67418    7.65358
       H    13.88477   -2.31318    6.46563
       O    12.90438   -2.52193    6.58050
      H1    12.95997   -2.93479    7.44679
       H    10.00862   -0.55043    4.39935
       O    10.21201    0.24512    4.92178
      H1     9.87233    1.01328    4.34569
       H     7.06022    8.49523    9.26023
       O     7.44603    7.79537    8.68995
      H1     6.89938    7.02574    8.84474
       H     6.03247    4.49637   13.61478
       O     5.83203    3.88927   12.86708
      H1     6.56555    4.00386   12.26950
       H     6.33690    7.80886    2.79338
       O     5.80943    8.53151    3.05009
      H1     4.94510    8.11808    2.88105
       H    12.46950    2.99994    5.29172
       O    12.80170    2.79872    4.37833
      H1    12.27900    2.03321    4.23299
       H     4.34925    4.07277    5.36890
       O     4.86694    3.91782    4.55369
      H1     5.71820    3.60404    4.98103
       H     7.58368    2.92203    9.95219
       O     7.29307    3.56453   10.57481
      H1     7.32054    4.37389   10.06734
       H     5.61117    5.29622    6.08769
       O     6.01330    6.13466    5.94369
      H1     6.16155    6.06261    5.00215
       H     9.53505   -2.16032    9.96261
       O    10.25753   -2.17955   10.60737
      H1    10.97088   -2.21431    9.91770
       H    16.32623    4.37247    8.94516
       O    16.28066    3.60720    8.38530
      H1    16.47497    3.01366    9.07511
       H    13.15261    0.51044    2.98270
       O    12.34402    0.67601    2.57095
      H1    11.73685    0.07486    2.91753
       H    17.52462    6.89298   10.06701
       O    16.87002    6.43242    9.53384
      H1    16.01808    6.69763    9.99534
       H    14.69644    3.68421   12.15745
       O    14.71361    4.52738   12.71155
      H1    13.77097    4.64492   12.79464
       H    13.92692    1.61370    6.08951
       O    14.42531    0.81910    6.03556
      H1    15.27800    1.20381    6.13803
       H     5.09323    1.05689    4.04939
       O     5.26199    0.07580    4.01879
      H1     5.03296   -0.11933    3.08217
       H     8.76000    0.19268    8.75340
       O     8.50405    1.13075    8.96134
      H1     9.25538    1.56808    9.36105

