180
frame 1 | Written by MDAnalysis XYZWriter (release 2.4.3)
       H     3.02573  -11.36672   17.16679
       O     3.25276  -10.40344   17.42505
      H1     2.57027  -10.23115   18.06114
       H    -0.92197  -12.77017   17.64890
       O    -0.09340  -12.40166   17.29350
      H1    -0.27601  -11.51028   16.90619
       H    10.10322  -14.41347   15.52734
       O     9.56161  -15.02012   16.12482
      H1     9.14327  -14.33563   16.73490
       H     4.00923  -11.14532   10.69982
       O     3.23629  -10.68937   11.11292
      H1     2.91646  -11.19543   11.84868
       H    -1.11106   -8.58534   15.63685
       O    -1.48377   -7.64774   15.81661
      H1    -0.77739   -7.09760   15.36340
       H     8.76710   -8.85332    8.64585
       O     8.74810   -8.03911    9.21568
      H1     8.65970   -8.32082   10.13399
       H     9.05087   -1.45868   13.31909
       O     9.60461   -1.16451   12.58802
      H1    10.37399   -0.82690   13.17424
       H     2.75551   -1.89272   14.67611
       O     3.52329   -1.43421   15.07001
      H1     3.08289   -1.33489   15.96992
       H    11.76590  -12.86637   18.65815
       O    10.96143  -12.47980   18.97996
      H1    11.23354  -11.72412   19.51294
       H    10.38973   -3.13945   15.58230
       O     9.79268   -2.88000   16.38284
      H1     9.57310   -3.79765   16.65966
       H     6.70186   -8.90469   18.47850
       O     5.74820   -8.79629   18.45633
      H1     5.44793   -9.42390   17.80536
       H    11.19095   -4.58782   13.92240
       O    11.49259   -4.02943   14.68001
      H1    11.40465   -4.60883   15.41555
       H     8.73659   -1.64386   19.80296
       O     8.83796   -1.90528   18.86203
      H1     9.74246   -2.29649   18.71927
       H     5.71575   -1.71703   12.49613
       O     6.08351   -1.67249   11.59822
      H1     5.68965   -2.46647   11.17461
       H     5.62839   -4.38006   18.79814
       O     4.82384   -4.69047   18.35074
      H1     5.16638   -4.30978   17.49003
       H     1.13062   -6.47126   17.39149
       O     2.02060   -6.84033   17.27074
      H1     1.90598   -7.52154   16.52294
       H     5.64559  -11.54938   11.78685
       O     6.01758  -11.71875   10.91442
      H1     5.54071  -12.44978   10.59050
       H     5.59645   -7.03607    9.48513
       O     4.77451   -7.32062    9.86740
      H1     4.59040   -6.55599   10.45575
       H     5.88047   -6.38343   16.88618
       O     6.41580   -6.75944   16.13724
      H1     6.15239   -7.72370   16.13693
       H     7.81695   -5.95304   16.98599
       O     8.46120   -5.83685   17.76146
      H1     8.45897   -6.72273   18.13802
       H     7.84080   -3.20306   19.11344
       O     7.28279   -3.93436   19.38786
      H1     7.78120   -4.72180   19.20866
       H    10.85742   -6.41800   11.69791
       O    10.93430   -6.04776   12.59931
      H1    10.12801   -5.53212   12.62439
       H     9.29237   -9.04999   18.36817
       O     8.45307   -8.76675   18.68416
      H1     8.61288   -9.00610   19.62343
       H     5.73812   -7.60227   11.46358
       O     6.05326   -7.72677   12.38428
      H1     5.36251   -8.33454   12.75563
       H    10.05343  -13.19809   13.92873
       O    10.87613  -13.66837   14.17849
      H1    10.85893  -14.41438   13.53435
       H     8.03498  -11.52961   14.29035
       O     8.10661  -12.42316   14.00161
      H1     7.54327  -12.86289   14.67092
       H     2.28804  -13.16855   18.01382
       O     2.35297  -12.89489   17.07300
      H1     1.44095  -12.75434   16.75574
       H     1.64840  -11.52818   13.23779
       O     2.44632  -11.67169   13.75433
      H1     2.27224  -12.48757   14.20909
       H     0.53742   -6.99498   12.64478
       O     1.10668   -6.99474   11.83978
      H1     0.87621   -7.86562   11.49190
       H     2.51126   -9.31948   16.16874
       O     1.85654   -8.96747   15.46432
      H1     2.41479   -9.09102   14.67925
       H     4.73042   -9.11712   14.96544
       O     5.56485   -9.48170   15.19426
      H1     5.33425   -9.95521   15.99402
       H     3.51873   -7.76656   13.52723
       O     3.64228   -8.73799   13.35875
      H1     3.18240   -8.89837   12.52375
       H     1.35330   -9.43523   19.22635
       O     0.92599   -9.20545   18.42789
      H1     1.55468   -8.50382   18.16193
       H    11.04242   -7.35450   13.62091
       O    11.03120   -8.28106   13.99847
      H1    10.09393   -8.30366   14.39130
       H    -0.37803   -4.81646   17.80806
       O    -0.07689   -5.58998   18.30640
      H1    -0.98284   -5.99726   18.45874
       H    11.50618   -4.42750   17.75467
       O    11.33711   -5.15044   17.13164
      H1    10.33853   -5.27816   17.27072
       H    -1.25283   -3.29069   16.19554
       O    -0.51367   -3.45287   16.75886
      H1     0.19714   -3.03900   16.28035
       H     1.41027   -5.89762   14.44060
       O     0.45400   -6.09578   14.41267
      H1     0.20735   -5.16375   14.41960
       H     8.27828  -12.08549   12.38196
       O     8.76499  -11.88813   11.57316
      H1     8.13045  -12.07534   10.87600
       H     6.41331   -5.53995   14.50077
       O     6.43973   -5.10691   13.63087
      H1     6.44329   -5.89844   13.03133
       H     2.89938   -5.83447   16.05417
       O     3.13030   -5.29324   15.25003
      H1     3.61100   -4.58961   15.70406
       H     5.33533  -11.72417   17.94536
       O     6.05603  -11.69263   17.28543
      H1     6.80047  -12.09739   17.75079
       H     4.93929   -0.71665   14.59852
       O     5.71445   -0.34580   14.16486
      H1     6.34382   -1.09052   14.37090
       H    -1.26926  -11.00472   15.00395
       O    -0.74038  -10.36646   15.51201
      H1     0.09110  -10.31756   14.94841
       H    12.17762   -6.42761   18.53443
       O    12.56519   -7.18616   18.94467
      H1    13.24966   -7.28615   18.24693
       H     9.86749   -9.23336   12.52660
       O     9.15679   -9.23104   11.88647
      H1     9.02371  -10.19658   11.72609
       H     4.56305  -14.82950   15.84572
       O     3.77765  -15.21455   16.27738
      H1     3.34475  -14.42529   16.67813
       H    13.55161   -8.34430   14.82491
       O    14.27677   -7.73762   15.09156
      H1    13.79902   -7.25561   15.79604
       H    11.73055   -8.91475   18.18271
       O    10.95251   -9.39834   17.79701
      H1    11.16262  -10.33869   17.91179
       H    -1.48311   -8.51746   20.12183
       O    -1.63141   -8.52560   19.17164
      H1    -0.77828   -8.74211   18.76345
       H     7.93665   -2.16352   15.51118
       O     7.39156   -2.37442   14.76566
      H1     7.99338   -2.73544   14.09691
       H     7.18810   -9.23617   14.48327
       O     8.08875   -9.52544   14.38898
      H1     8.33135   -9.43001   13.38623
       H     8.53340  -13.93249   18.76185
       O     8.47976  -13.38202   18.02991
      H1     9.21396  -12.69459   18.23284
       H     4.13690  -11.49293   13.73295
       O     5.06920  -11.56385   13.46264
      H1     5.43834  -10.76484   13.93535
       H     1.57549   -4.79035   18.18633
       O     2.13657   -3.97263   18.14359
      H1     3.02306   -4.37038   17.99043
       H     8.09619   -4.30814   12.52826
       O     8.89840   -3.87195   12.86679
      H1     8.99645   -3.17205   12.20492
       H     4.67535   -2.72646   15.83249
       O     5.31051   -3.43828   16.11798
      H1     6.04142   -2.98506   15.69240
       H     5.88764  -12.93678   16.15019
       O     6.01909  -13.49529   15.37982
      H1     5.71122  -12.86357   14.66145
       H     1.00930   -4.96409   11.56892
       O     1.48139   -4.14217   11.44022
      H1     1.13894   -4.00802   10.55728
       H     3.53483   -4.76864   11.51137
       O     4.49193   -4.86291   11.64114
      H1     4.56282   -4.54461   12.58558

