180
frame 9 | Written by MDAnalysis XYZWriter (release 2.4.3)
       H   -12.76792    7.81924   15.63859
       O   -12.41943    7.03591   16.07791
      H1   -12.32629    7.47058   16.94780
       H    -6.12709    3.72310   10.79103
       O    -6.22694    4.01733   11.71549
      H1    -6.83071    3.34575   12.09254
       H    -5.37039    5.70289   12.13576
       O    -5.06220    6.62644   12.26696
      H1    -5.89817    7.09897   12.04210
       H   -15.77591    6.55210   10.47690
       O   -16.26618    6.96930   11.27300
      H1   -16.32173    7.87778   10.92063
       H    -6.89535    6.48304   18.36549
       O    -6.88680    6.07582   19.27532
      H1    -6.00376    5.72260   19.32831
       H   -13.00803   11.14005   19.96519
       O   -13.30488   11.08588   19.00762
      H1   -14.18807   10.66017   19.06885
       H   -10.74310    7.58660   14.82442
       O   -10.52314    7.93176   13.97053
      H1    -9.52689    8.04617   14.07470
       H   -13.26414    7.45893   11.64876
       O   -13.76795    7.15911   12.40803
      H1   -14.64767    7.25406   11.99380
       H   -10.19287   15.18487   14.27330
       O   -10.27631   16.12157   14.51840
      H1   -10.79274   16.59028   13.83078
       H   -12.42213   10.43285   14.42288
       O   -11.84351   11.21818   14.32842
      H1   -10.99011   10.85448   14.46825
       H    -4.88713    5.88423   10.17136
       O    -4.67600    5.45411    9.32412
      H1    -4.34295    4.61489    9.70186
       H   -12.79099    4.03830   15.21638
       O   -11.95010    4.31372   14.84489
      H1   -11.84839    5.21343   15.15928
       H   -10.25058    6.66764   18.50541
       O   -10.76028    6.11186   19.11916
      H1   -11.55216    5.73874   18.73236
       H   -10.58013    1.21992   16.49657
       O   -10.46707    2.18403   16.71198
      H1    -9.60872    2.37629   17.08511
       H   -14.62392    8.96043   14.34578
       O   -13.66372    8.89446   14.40629
      H1   -13.46383    8.23570   13.61038
       H    -9.13447   10.47689    9.23094
       O    -8.42628   10.38813    9.97897
      H1    -8.77342    9.70123   10.52123
       H   -14.08315    2.80021   16.35971
       O   -14.54670    3.15943   15.50930
      H1   -15.02141    3.91728   15.88411
       H   -18.28738    4.89902   16.24230
       O   -17.35005    4.61578   16.17903
      H1   -16.86473    5.45878   16.27543
       H    -9.05263    5.15486    9.22851
       O    -8.73469    5.81608    9.85197
      H1    -9.39213    5.75974   10.55978
       H    -9.18994    3.06856   15.29218
       O    -8.27474    3.32737   15.04707
      H1    -7.63236    2.67033   15.37783
       H    -8.95661   12.96264   13.58589
       O    -9.34117   13.44957   14.31134
      H1    -9.87451   12.82057   14.78286
       H   -10.85180    1.94119   12.03003
       O   -10.50871    2.35070   11.23256
      H1   -11.02573    3.12085   11.11948
       H    -9.70780    4.08894    7.35022
       O    -9.11953    3.94711    8.13161
      H1    -9.05090    2.94550    8.06171
       H    -6.20376    9.88866   15.34202
       O    -6.31028    9.04009   15.83842
      H1    -7.04668    8.59946   15.37691
       H    -7.48253    7.83908   13.17620
       O    -7.80465    7.81649   14.08974
      H1    -7.67863    6.89469   14.38634
       H   -16.49664    9.82476   14.15795
       O   -16.28766    9.21562   14.87961
      H1   -17.10441    8.64922   14.73984
       H   -12.92085    9.42526   18.60723
       O   -12.73293    8.45811   18.40357
      H1   -13.51648    7.95045   18.63044
       H   -11.44172    9.92495    8.19262
       O   -10.69017    9.41593    8.48595
      H1   -10.51790    8.90080    7.71382
       H    -8.45792   10.76092   16.01167
       O    -9.12085   10.78778   15.31271
      H1    -8.52026   10.82448   14.56906
       H    -7.14555    9.69500   19.44208
       O    -6.67948    9.09386   18.91122
      H1    -6.28753    9.61947   18.17071
       H   -11.99762    7.08872   10.49847
       O   -12.37639    7.74198    9.88187
      H1   -11.66800    8.31835    9.55829
       H    -5.90668   14.09844   15.84134
       O    -6.62335   13.49580   16.13213
      H1    -7.36796   13.75916   15.63371
       H   -17.60233   10.18667   10.18770
       O   -17.06630    9.63046   10.83147
      H1   -16.33672   10.26160   10.84231
       H   -16.57905    4.93087   13.22827
       O   -17.47349    4.73105   13.53279
      H1   -17.33246    4.76327   14.46521
       H   -10.68533    6.93089   12.24498
       O   -11.04717    6.16766   11.76170
      H1   -11.29944    5.54501   12.46386
       H    -7.91294   11.14580   11.52943
       O    -7.96531   11.84340   12.17928
      H1    -7.85790   12.63534   11.62374
       H    -8.00565    1.92698   13.65141
       O    -7.83402    1.81985   12.69656
      H1    -8.60882    2.32783   12.33527
       H   -12.81383    6.92041    8.00448
       O   -13.42385    6.68337    7.26370
      H1   -13.24614    7.41392    6.64220
       H   -13.08485   12.79408   18.17678
       O   -13.05204   13.72361   17.87832
      H1   -13.19227   14.28955   18.68588
       H   -11.38641   11.85166   12.44757
       O   -11.46305   12.37214   11.62185
      H1   -12.04570   11.73033   11.15093
       H    -4.86545   10.38658   10.89272
       O    -4.89991    9.44752   11.03035
      H1    -4.43104    9.16133   10.26308
       H    -6.35755   11.99564   14.86393
       O    -6.38472   11.32111   14.23330
      H1    -6.87073   11.63561   13.45586
       H   -13.12121    2.16391   10.79140
       O   -13.73485    1.87098   11.51819
      H1   -14.02786    2.72389   11.83370
       H    -6.66619    6.56729    7.08384
       O    -7.40416    7.05216    7.45716
      H1    -7.71390    6.59995    8.24058
       H    -6.17553    6.16398   15.90743
       O    -6.99994    5.90806   16.39032
      H1    -7.13887    5.00802   16.10677
       H    -8.12361    3.09677   19.01143
       O    -8.16785    3.53038   18.11392
      H1    -7.87898    4.42048   18.36489
       H   -13.69951    5.09315   12.86869
       O   -14.23277    4.29020   12.94344
      H1   -14.00834    3.93675   13.84948
       H    -4.03051    6.60656   15.38924
       O    -4.84006    6.40693   14.90525
      H1    -4.78694    6.72239   13.99351
       H   -14.80264    5.69645   17.36146
       O   -14.90677    5.93142   16.39705
      H1   -14.04796    6.37556   16.14450
       H   -13.25350    3.76183    8.89706
       O   -12.45587    3.86579    9.43501
      H1   -11.82595    3.26823    8.90601
       H    -6.68845    8.34050   11.05383
       O    -7.35958    7.79691   11.46968
      H1    -7.72052    7.24451   10.76336
       H   -12.54341    1.84561   12.97604
       O   -11.82396    1.71452   13.56444
      H1   -11.63052    2.65631   13.91620
       H   -10.17656   10.95751   19.25740
       O    -9.64132   10.39284   18.61590
      H1   -10.30258   10.28017   17.91443
       H    -3.35073    9.97307   16.21745
       O    -3.96506    9.66378   16.94619
      H1    -4.86268    9.52162   16.61760
       H   -10.96444    9.08985   12.28150
       O   -10.30267    9.40175   11.56248
      H1   -10.52706   10.34272   11.55768
       H    -8.41465    7.50154   17.16568
       O    -9.06474    7.70175   17.88390
      H1    -8.63420    8.47717   18.35334
       H   -13.12488    1.34342   17.36240
       O   -13.11250    2.28312   17.49679
      H1   -12.20467    2.51332   17.24121
       H   -12.47373    9.96531   10.42655
       O   -13.14210   10.62605   10.16067
      H1   -13.38701   10.46134    9.25965
       H   -13.46396   13.11499   12.11191
       O   -14.37654   13.16041   11.78105
      H1   -14.95367   13.47210   12.53196
       H   -16.99114    9.98711   16.50823
       O   -17.63286   10.17906   17.23499
      H1   -16.95617   10.17697   17.98521

