180
frame 5 | Written by MDAnalysis XYZWriter (release 2.4.3)
       H     3.25593  -11.78682   17.64161
       O     3.65524  -10.86438   17.74583
      H1     3.66395  -10.78429   18.72616
       H     4.63812  -10.24007   12.39428
       O     3.81603   -9.85505   12.10696
      H1     3.20554  -10.38203   12.63699
       H    -1.84295   -6.74636   16.97256
       O    -1.04788   -6.14879   17.04054
      H1    -1.20341   -5.40102   16.42754
       H     8.32138   -0.07128   12.95904
       O     9.26110    0.17397   12.96613
      H1     9.20139    1.06268   12.55564
       H     9.76164   -8.29509    9.84585
       O    10.12766   -7.43470    9.47354
      H1    10.30821   -6.89808   10.23114
       H     9.22696   -2.35983   10.89779
       O    10.05413   -2.00768   11.31533
      H1     9.81124   -1.19767   11.74058
       H     3.79692   -1.09246   13.86708
       O     3.93386   -0.35075   14.48443
      H1     3.31469   -0.41178   15.26305
       H    10.67722   -1.06513   16.54232
       O    11.54679   -1.56417   16.47474
      H1    12.08733   -1.14120   17.15996
       H     8.04665   -2.32175   15.32839
       O     7.56995   -3.19967   15.25518
      H1     8.38113   -3.75671   15.53898
       H    11.37051   -4.47628   14.72656
       O    12.24243   -4.22723   15.07298
      H1    12.31932   -4.96468   15.68262
       H     1.56520   -1.92255   16.18106
       O     2.20158   -2.61534   16.03197
      H1     2.30922   -3.08042   16.84636
       H     9.08437   -1.87484   19.79471
       O     8.91599   -2.82612   19.57298
      H1     9.77967   -2.95712   19.14154
       H     5.90703   -0.56413   13.42505
       O     6.71923   -0.91155   13.08140
      H1     6.55295   -1.89566   12.88471
       H     5.95124   -4.27022   17.46686
       O     5.28319   -4.93026   17.26678
      H1     4.96665   -4.61376   16.39739
       H     0.92307   -6.80295   17.54503
       O     1.80867   -6.59720   17.80166
      H1     2.37798   -7.09436   17.16452
       H     5.52086  -11.84795   13.84651
       O     5.69695  -11.51969   12.89519
      H1     5.20943  -12.13126   12.39239
       H     6.26044   -6.88071   10.39151
       O     5.71330   -7.44449   10.96181
      H1     5.76856   -6.86505   11.71533
       H     2.32115    0.63590   17.34928
       O     1.90740   -0.20056   17.62423
      H1     2.69632   -0.61200   18.05347
       H     6.06826   -6.28409   16.44139
       O     6.58867   -6.83051   15.83321
      H1     6.21746   -7.67915   16.00107
       H     8.43193   -5.57349   16.60598
       O     9.19847   -4.98524   16.65057
      H1     9.44297   -5.00159   17.63119
       H     7.19508   -3.01723   17.04111
       O     6.80311   -2.83102   17.89548
      H1     7.63909   -2.94117   18.41908
       H    11.79833   -5.03073   11.04172
       O    11.00663   -5.57911   11.18160
      H1    10.82434   -5.38917   12.15119
       H     9.33824  -10.58411   10.68719
       O     9.06489   -9.65437   10.66615
      H1     8.20046   -9.65198   10.13054
       H     9.42535  -10.25404   16.34871
       O     8.97436   -9.71928   15.64193
      H1     8.01845   -9.80956   15.84614
       H     2.00545  -11.70749   14.16799
       O     2.42358  -11.47177   14.98237
      H1     2.39668  -12.27771   15.44921
       H     1.79168   -6.23844   13.17999
       O     2.17208   -6.21951   12.29958
      H1     1.80710   -7.08510   11.98165
       H     2.15179   -9.72321   15.74748
       O     2.04526   -8.80930   16.00113
      H1     2.55842   -8.32049   15.35497
       H     4.76708   -8.95293   15.54272
       O     5.53302   -9.30322   16.06787
      H1     5.03216   -9.73867   16.77327
       H    11.53013   -2.92672   17.58939
       O    11.64248   -3.65742   18.20114
      H1    12.42177   -3.36073   18.69170
       H     3.68197   -7.19230   13.25915
       O     3.84857   -7.75849   14.04870
      H1     4.02295   -8.52011   13.51345
       H     0.98414   -9.31633   19.82529
       O     0.62607   -8.41829   19.74392
      H1     1.23624   -8.01264   19.11763
       H     5.54820  -14.15367   19.78538
       O     4.97906  -13.58791   19.25737
      H1     4.95316  -12.81546   19.88684
       H     2.90248   -2.59948   11.64138
       O     2.85421   -1.75808   12.15827
      H1     2.26679   -1.19797   11.55697
       H    11.64049   -5.73520   17.23156
       O    12.09193   -6.41689   16.71920
      H1    11.41728   -6.99678   16.31223
       H    -0.55592   -3.07238   14.87496
       O    -0.51227   -3.63475   15.68414
      H1     0.43673   -3.76126   15.80291
       H    -0.25935   -6.52108   14.18397
       O    -0.89336   -6.79377   13.49580
      H1    -1.38447   -5.98380   13.29957
       H     8.88430  -11.02422   14.27546
       O     8.61931  -11.61753   13.58307
      H1     7.77310  -11.32395   13.22277
       H     7.78578   -5.37912    9.47409
       O     7.60347   -6.34116    9.20315
      H1     8.49757   -6.62230    9.50031
       H     9.27262   -7.81225   13.59349
       O     9.33551   -7.56810   12.65014
      H1     8.92676   -8.37016   12.25152
       H     7.52110   -2.94629   10.22802
       O     8.24749   -3.63201   10.17769
      H1     8.51402   -3.55001    9.25233
       H     1.83240   -5.82924   16.19698
       O     1.85860   -5.52053   15.25242
      H1     2.66123   -5.04165   15.21360
       H     5.83531  -12.08189   18.38223
       O     6.54111  -11.59847   17.87370
      H1     7.27613  -12.16455   18.02725
       H     6.06139   -0.08595   16.52139
       O     6.85673    0.43368   16.30550
      H1     7.19720   -0.22583   15.66017
       H     5.16466   -0.89355   19.39922
       O     4.68683   -1.63289   18.99179
      H1     5.46568   -2.05622   18.53639
       H    -0.24009  -10.95111   16.16611
       O    -0.02681  -10.73438   17.11842
      H1     0.58181   -9.99269   16.87176
       H    13.09943   -8.03853   17.80539
       O    12.97128   -8.89384   18.30514
      H1    13.71888   -9.47849   17.95721
       H    13.06433   -7.98557   14.30340
       O    13.96798   -7.71053   14.50821
      H1    13.91960   -7.07138   15.22144
       H    11.94048  -10.00713   17.68491
       O    11.24815  -10.68675   17.49563
      H1    11.71202  -11.37932   17.94095
       H     6.46355   -3.79388   13.43902
       O     5.73719   -3.36478   12.98567
      H1     5.34027   -4.12212   12.56126
       H    10.96743   -8.77527   13.69997
       O    11.09782   -8.41499   14.65018
      H1    10.56467   -9.03241   15.15480
       H     4.28551  -12.16650   15.23725
       O     5.21748  -12.42790   15.32539
      H1     5.47027  -11.81976   15.98417
       H     2.67249   -5.06798   18.20782
       O     2.78519   -4.17540   18.58144
      H1     3.67080   -3.89007   18.47883
       H     8.92005   -4.83542   13.22080
       O     9.75231   -4.32959   13.35049
      H1     9.84011   -3.95578   12.45391
       H     9.63365    0.26135   18.96148
       O     9.33943   -0.33651   18.27492
      H1     8.39080   -0.35294   18.36248
       H     3.63703   -3.36468   15.27264
       O     4.10805   -4.15897   14.89569
      H1     4.64618   -3.77454   14.17831
       H     8.83830   -0.36423   15.83926
       O     9.15365   -1.12117   15.28685
      H1     9.26480   -0.65305   14.41779
       H     5.27765   -2.57038   10.81296
       O     5.51271   -2.18794    9.90984
      H1     5.98838   -1.31454   10.07338
       H     3.82809   -5.10672   11.62169
       O     4.61226   -4.85706   11.05383
      H1     4.03783   -4.56874   10.29035
       H     7.61603   -6.63541   13.09133
       O     6.79095   -6.13301   13.11859
      H1     6.48762   -6.23769   14.07700
       H     4.39057   -8.08340    9.94530
       O     3.97086   -8.58169    9.27136
      H1     4.79052   -8.93374    8.85037

