180
frame 4 | Written by MDAnalysis XYZWriter (release 2.4.3)
       H    16.05469   10.07539   -6.14602
       O    16.27826   10.59139   -6.98994
      H1    15.38790   11.03367   -7.09117
       H    16.19541    7.64999   -9.33831
       O    17.06890    7.28960   -9.17652
      H1    17.16467    6.42467   -9.67866
       H    13.44244    2.05029   -7.08505
       O    12.98025    1.20975   -6.99660
      H1    13.11180    0.80174   -7.85291
       H    13.57493    7.36133   -5.10390
       O    12.75609    7.67973   -4.67679
      H1    13.24535    8.34071   -4.07602
       H    16.64706    8.27851    0.10445
       O    16.98010    7.40722   -0.18606
      H1    17.29671    7.07301    0.68086
       H    12.19544    8.96037  -13.22624
       O    11.70292    8.56161  -13.96289
      H1    12.26388    7.89756  -14.26140
       H    19.10382    9.26676   -8.04721
       O    19.27476    9.63204   -8.92826
      H1    18.40011    9.88654   -9.19678
       H    16.73802    8.77846   -4.65396
       O    15.90000    9.28235   -4.76305
      H1    15.38753    9.26350   -3.96518
       H    14.02168    4.79819   -1.05219
       O    13.62099    4.09136   -1.60662
      H1    12.68637    4.19631   -1.48988
       H     8.75410    4.15260   -4.39535
       O     9.63888    4.20255   -4.77433
      H1     9.63514    3.51275   -5.47603
       H    11.43063    5.75114   -7.08261
       O    12.07269    5.89370   -7.76925
      H1    12.77099    5.31218   -7.43726
       H    14.81184    4.62070   -4.94406
       O    14.75136    3.83446   -4.40696
      H1    14.42307    4.16571   -3.54510
       H    11.23908    7.06054   -4.58329
       O    10.30149    6.84948   -4.64979
      H1    10.25064    5.84863   -4.68497
       H    16.94451    2.09265  -10.13732
       O    16.46305    2.06776   -9.26128
      H1    17.12642    2.50425   -8.63635
       H    14.16062   10.25686   -3.07943
       O    13.90302    9.32362   -2.92411
      H1    13.95667    9.18662   -1.99638
       H    11.53246    2.09533  -10.33642
       O    11.73034    2.77593  -10.98164
      H1    12.36961    3.37257  -10.57103
       H    17.44841   -0.12215   -6.56270
       O    17.42786   -1.04557   -6.30146
      H1    16.77272   -1.50069   -6.81875
       H    15.21751    5.34130  -12.93879
       O    14.90261    6.22163  -13.13383
      H1    14.39677    6.07602  -13.94226
       H    16.78382    3.82443  -12.09022
       O    17.22018    4.57041  -11.69786
      H1    17.96607    4.51315  -12.31615
       H    16.16153    0.20083   -9.19654
       O    15.82048   -0.61594   -9.55998
      H1    15.74297   -1.18393   -8.76175
       H    15.26147    5.19997   -6.72048
       O    14.81240    6.02958   -6.59302
      H1    15.48831    6.63384   -6.88513
       H    12.26598    8.37957   -6.30558
       O    12.28822    8.54824   -7.26066
      H1    12.13379    7.62301   -7.60195
       H    10.16552    2.76726   -1.73815
       O    10.80041    2.68253   -2.49439
      H1    10.35094    3.23611   -3.15764
       H    16.97714   10.95298   -3.41786
       O    17.24859   11.42807   -2.63363
      H1    16.68159   11.01715   -1.87140
       H    16.60884    6.83923   -2.71174
       O    16.08203    6.02708   -2.60617
      H1    15.52928    6.34113   -1.86389
       H    16.02543    2.50362   -3.13951
       O    16.64870    1.84085   -2.76279
      H1    17.50466    1.93860   -3.29354
       H    11.43916    0.98005   -6.25936
       O    10.51107    1.18184   -5.93429
      H1     9.97481    0.87312   -6.68698
       H    17.18472   12.11585   -7.03576
       O    17.93865   12.72625   -7.16137
      H1    17.45396   13.56589   -7.08998
       H    12.96310    1.88098  -11.94695
       O    13.72296    1.59435  -12.47722
      H1    13.79165    0.60391  -12.30577
       H     9.89082   10.64154   -5.63487
       O     9.69013   10.79590   -4.63985
      H1     8.88733   11.27384   -4.74548
       H     8.00581    4.76169   -8.78752
       O     7.86241    5.71414   -8.97944
      H1     8.73381    5.89251   -9.37756
       H    14.96496    7.53594  -11.45778
       O    14.90898    8.19654  -10.72928
      H1    14.20495    8.72499  -11.23478
       H    16.54293   14.00490   -4.17145
       O    17.32737   14.03719   -3.64377
      H1    17.38161   13.15562   -3.30311
       H    15.34898    6.74593   -0.12580
       O    14.42530    6.45600   -0.31225
      H1    14.18400    5.94390    0.55860
       H    19.10405   11.64872   -6.23431
       O    19.57148   10.95860   -5.79994
      H1    19.11176   10.15460   -6.08629
       H     9.72713    7.77338   -9.67900
       O    10.15580    6.93201   -9.97617
      H1    10.06791    7.00571  -10.95278
       H    18.40285    4.76360  -10.21370
       O    19.20975    5.10923   -9.82217
      H1    19.11804    4.80874   -8.88501
       H     9.11770    9.32171   -3.83331
       O     8.66357    8.69284   -3.19482
      H1     8.94523    7.86191   -3.59680
       H    19.73774    8.25249  -12.09846
       O    19.73307    8.59493  -13.03376
      H1    18.76640    8.50554  -13.21895
       H    11.62325   13.44906   -7.99200
       O    12.44334   13.08781   -8.30818
      H1    12.41276   13.32273   -9.25894
       H    10.57326    5.02331  -13.15357
       O    11.05881    4.19161  -13.38918
      H1    11.31881    3.86985  -12.47989
       H     7.71065    8.77688   -8.53340
       O     8.46349    9.00385   -9.11491
      H1     9.06333    9.40748   -8.51358
       H    13.39496   -0.10454   -5.17719
       O    13.19492   -0.26664   -4.22337
      H1    12.41940    0.29886   -4.11729
       H    16.89254    9.31459  -12.23921
       O    17.05115    8.64857  -12.93308
      H1    16.88432    7.82899  -12.44736
       H    19.38435    1.59181   -7.19898
       O    18.57020    1.45331   -6.67902
      H1    18.94748    1.67714   -5.76093
       H    19.32469    2.94886   -4.23784
       O    19.09621    2.03508   -4.06770
      H1    19.83586    1.52120   -4.35438
       H    11.68768    8.72522   -0.93682
       O    12.59633    8.65381   -0.63850
      H1    12.83358    7.72077   -0.66383
       H    12.72357    5.48059   -9.76463
       O    13.19275    5.01737  -10.46542
      H1    13.14908    5.57086  -11.25815
       H    13.11337   10.55615  -12.61979
       O    13.17371    9.76051  -12.03564
      H1    12.67160   10.15988  -11.28976
       H    14.33896   13.64299   -5.09432
       O    14.73913   14.46735   -4.77938
      H1    14.33297   15.11287   -5.42546
       H    13.19052   11.69701   -7.54292
       O    13.66322   11.16842   -6.90865
      H1    13.33165   10.27149   -7.05225
       H    18.01759    7.78275   -7.58026
       O    18.48915    8.14282   -6.80278
      H1    19.06686    7.45818   -6.45473
       H    11.07682    9.94538   -7.34832
       O    10.24983   10.40416   -7.31643
      H1    10.57581   11.33951   -7.10756
       H    13.96049    4.14625   -9.03425
       O    14.34845    3.69684   -8.25178
      H1    15.19444    3.35770   -8.62963
       H    13.38398   11.94885   -3.87816
       O    14.20738   11.68903   -4.32904
      H1    13.76813   11.29938   -5.05888
       H    16.00043   10.09197  -10.52523
       O    16.95724   10.22580  -10.43862
      H1    17.01850   11.17750  -10.60900
       H    17.46322    5.02202   -2.17026
       O    18.30450    4.63926   -1.77093
      H1    18.29361    4.99703   -0.89341
       H    18.15835    4.79762   -7.20755
       O    18.00365    3.96101   -7.70286
      H1    18.41592    3.25590   -7.08332
       H    15.69998    3.01807  -14.35897
       O    15.71009    2.99576  -13.38987
      H1    14.92351    2.35788  -13.31007
       H    18.96439    7.89949   -3.47369
       O    18.02599    7.82707   -3.22227
      H1    18.23149    7.98712   -2.23840

