180
frame 1 | Written by MDAnalysis XYZWriter (release 2.4.3)
       H     3.02573  -11.36672   17.16679
       O     3.25276  -10.40344   17.42505
      H1     2.57027  -10.23115   18.06114
       H     7.49244  -16.09311    5.25229
       O     8.29477  -15.89639    5.81764
      H1     8.86380  -15.29948    5.26922
       H    10.10322  -14.41347   15.52734
       O     9.56161  -15.02012   16.12482
      H1     9.14327  -14.33563   16.73490
       H     4.00923  -11.14532   10.69982
       O     3.23629  -10.68937   11.11292
      H1     2.91646  -11.19543   11.84868
       H     6.71083  -19.11894    7.52186
       O     5.98256  -18.57559    7.10766
      H1     6.31818  -18.38459    6.25448
       H     7.62035  -13.20049    3.67643
       O     8.34113  -12.59312    3.72078
      H1     7.87860  -11.78113    3.53684
       H     8.76710   -8.85332    8.64585
       O     8.74810   -8.03911    9.21568
      H1     8.65970   -8.32082   10.13399
       H    10.40272  -17.29823    7.45346
       O     9.52485  -17.27249    7.80714
      H1     9.01531  -16.81203    7.02475
       H    -0.07843   -8.17712    9.46247
       O    -0.12254   -8.89063   10.12291
      H1     0.37613   -9.60917    9.71312
       H     2.11650  -14.65508    7.27897
       O     1.22147  -14.29188    7.15669
      H1     1.24750  -14.01177    6.21989
       H     8.67473  -17.95069   13.84463
       O     8.79397  -17.93724   14.77355
      H1     7.99445  -18.39544   15.06392
       H     5.02025  -10.77386    7.44684
       O     4.32971  -11.15074    7.96451
      H1     3.59511  -10.55604    7.90042
       H     1.54424  -17.56388   12.64098
       O     1.72055  -18.10658   13.45095
      H1     0.93355  -18.68704   13.36270
       H     6.61561   -9.92923    6.08043
       O     6.12754  -10.68733    5.80209
      H1     6.74966  -11.39787    5.85256
       H    12.79448  -11.16781   10.80787
       O    12.50858  -11.98908   11.20812
      H1    11.58687  -12.10066   10.91280
       H     4.24626  -10.13650    5.07990
       O     3.43236   -9.86949    4.63047
      H1     3.44444  -10.53852    3.89966
       H     1.25769   -9.03821    7.49003
       O     0.68478   -8.44193    6.90375
      H1     1.01526   -8.68176    6.02408
       H     5.64559  -11.54938   11.78685
       O     6.01758  -11.71875   10.91442
      H1     5.54071  -12.44978   10.59050
       H     5.59645   -7.03607    9.48513
       O     4.77451   -7.32062    9.86740
      H1     4.59040   -6.55599   10.45575
       H     3.40333  -18.77786   12.95909
       O     4.33609  -19.09043   12.95394
      H1     4.23151  -19.91848   12.45026
       H    10.62045  -15.68497   11.57376
       O    11.34040  -15.51892   12.23530
      H1    12.12672  -15.49425   11.64532
       H     4.43785  -17.61762    7.89972
       O     3.84721  -17.58568    8.65576
      H1     4.51591  -17.67262    9.36444
       H     3.22594  -17.89467    4.79809
       O     3.06409  -17.03297    4.45274
      H1     3.33905  -16.47322    5.21726
       H    -0.56317  -11.16305    7.30131
       O    -1.11439  -10.44570    6.95478
      H1    -0.47399   -9.74862    6.94607
       H     5.73812   -7.60227   11.46358
       O     6.05326   -7.72677   12.38428
      H1     5.36251   -8.33454   12.75563
       H    10.05343  -13.19809   13.92873
       O    10.87613  -13.66837   14.17849
      H1    10.85893  -14.41438   13.53435
       H     8.03498  -11.52961   14.29035
       O     8.10661  -12.42316   14.00161
      H1     7.54327  -12.86289   14.67092
       H    -1.20950  -13.77662   10.34265
       O    -1.44798  -12.87102   10.00943
      H1    -2.19522  -12.67714   10.60362
       H     2.28804  -13.16855   18.01382
       O     2.35297  -12.89489   17.07300
      H1     1.44095  -12.75434   16.75574
       H     6.96919  -13.32771    7.31583
       O     7.84645  -13.12262    7.01709
      H1     8.23239  -14.02911    6.71800
       H     1.64840  -11.52818   13.23779
       O     2.44632  -11.67169   13.75433
      H1     2.27224  -12.48757   14.20909
       H     0.53742   -6.99498   12.64478
       O     1.10668   -6.99474   11.83978
      H1     0.87621   -7.86562   11.49190
       H     2.51126   -9.31948   16.16874
       O     1.85654   -8.96747   15.46432
      H1     2.41479   -9.09102   14.67925
       H     4.73042   -9.11712   14.96544
       O     5.56485   -9.48170   15.19426
      H1     5.33425   -9.95521   15.99402
       H     8.84618  -19.32995   11.38381
       O     8.39590  -18.64175   11.92793
      H1     7.51639  -18.65766   11.47881
       H     3.51873   -7.76656   13.52723
       O     3.64228   -8.73799   13.35875
      H1     3.18240   -8.89837   12.52375
       H     8.65597  -10.99424    7.50208
       O     8.43400  -10.06143    7.39649
      H1     8.95928   -9.89189    6.55520
       H     0.84490  -14.81983   14.73916
       O     0.95660  -14.29775   13.95228
      H1     0.04370  -14.33375   13.54578
       H     5.13390  -14.94113   10.65129
       O     4.44427  -14.43168   10.25239
      H1     3.72258  -14.96489   10.64704
       H     7.54454  -15.73789   11.04730
       O     6.58317  -15.82760   11.27779
      H1     6.66302  -15.91148   12.25831
       H    11.04242   -7.35450   13.62091
       O    11.03120   -8.28106   13.99847
      H1    10.09393   -8.30366   14.39130
       H    -0.30844  -10.04308   11.95423
       O     0.14024  -10.80172   12.39320
      H1    -0.40353  -11.54631   12.43487
       H     8.27828  -12.08549   12.38196
       O     8.76499  -11.88813   11.57316
      H1     8.13045  -12.07534   10.87600
       H     7.20691   -5.36013    8.61609
       O     6.98319   -6.26818    8.31043
      H1     7.65728   -6.90379    8.60829
       H     6.41331   -5.53995   14.50077
       O     6.43973   -5.10691   13.63087
      H1     6.44329   -5.89844   13.03133
       H     5.33533  -11.72417   17.94536
       O     6.05603  -11.69263   17.28543
      H1     6.80047  -12.09739   17.75079
       H     3.44858  -16.10764    7.46484
       O     3.53730  -15.75265    6.58471
      H1     4.28097  -15.14293    6.70704
       H    11.28426   -6.09177    9.26461
       O    11.09726   -6.93662    9.72700
      H1    10.12153   -7.11210    9.68513
       H     9.86749   -9.23336   12.52660
       O     9.15679   -9.23104   11.88647
      H1     9.02371  -10.19658   11.72609
       H    -0.04238  -12.04627    9.10948
       O     0.69008  -11.78273    8.52340
      H1     0.82005  -12.57200    7.98716
       H     4.56305  -14.82950   15.84572
       O     3.77765  -15.21455   16.27738
      H1     3.34475  -14.42529   16.67813
       H     5.48554  -18.60498   11.80533
       O     5.79766  -18.34319   10.89391
      H1     6.05744  -17.42382   11.04126
       H     7.18810   -9.23617   14.48327
       O     8.08875   -9.52544   14.38898
      H1     8.33135   -9.43001   13.38623
       H     9.14107  -16.99903   10.83593
       O     9.21358  -16.11827   10.34379
      H1     9.48619  -16.44854    9.39953
       H     1.89251  -15.12693   12.71411
       O     2.37641  -15.57613   12.01941
      H1     3.29498  -15.32438   12.26370
       H     4.13690  -11.49293   13.73295
       O     5.06920  -11.56385   13.46264
      H1     5.43834  -10.76484   13.93535
       H     5.03001  -14.14850    8.65209
       O     5.23600  -13.71171    7.77995
      H1     4.78238  -12.88106    7.91021
       H     5.88764  -12.93678   16.15019
       O     6.01909  -13.49529   15.37982
      H1     5.71122  -12.86357   14.66145
       H     6.31109  -15.59592   14.67917
       O     6.49062  -16.35692   14.11087
      H1     7.34928  -16.59738   14.39909
       H     2.45723   -9.76855    9.50819
       O     2.51188   -9.15911    8.73927
      H1     3.09580   -8.42114    9.07782

