180
frame 10 | Written by MDAnalysis XYZWriter (release 2.4.3)
       H   -16.45465    1.56616  -10.05843
       O   -16.33878    2.40687   -9.64189
      H1   -15.89480    2.89451  -10.28410
       H   -13.06010    8.55925  -11.21102
       O   -13.50044    8.32163  -10.35896
      H1   -12.62765    8.17169   -9.90867
       H   -11.97625    4.13656  -11.96815
       O   -12.11979    3.45768  -12.66578
      H1   -12.80931    3.92670  -13.12291
       H    -9.80866    6.29691  -11.34209
       O   -10.08831    6.78754  -10.62762
      H1   -10.81246    7.32462  -10.96708
       H   -18.59910   11.80307   -6.62543
       O   -17.72339   12.23966   -6.64085
      H1   -17.91479   13.18545   -6.76152
       H   -13.01702    4.77139   -8.79776
       O   -13.63451    4.62392   -8.06150
      H1   -13.29298    3.78017   -7.68331
       H   -18.49931    2.09547   -9.34168
       O   -19.38749    1.76473   -9.57964
      H1   -19.45083    0.81544   -9.42551
       H   -11.27264    9.61321  -12.31910
       O   -11.97778    8.89363  -12.47089
      H1   -11.62089    8.36799  -13.19403
       H   -15.94766    3.54631  -13.39711
       O   -16.33505    2.81858  -12.89777
      H1   -15.56610    2.32460  -12.64092
       H   -18.93844    0.92983  -17.94243
       O   -18.86573    1.84854  -18.21224
      H1   -18.77968    1.81709  -19.19410
       H   -17.40941   15.90563   -9.71510
       O   -18.35600   15.68442   -9.89456
      H1   -18.65407   16.21629  -10.68300
       H   -15.20489   14.99366  -12.54330
       O   -14.65391   15.59826  -11.92399
      H1   -14.52105   16.29311  -12.59545
       H   -13.60980   13.27659  -10.69300
       O   -12.74044   12.89665  -10.86586
      H1   -12.55635   13.14846  -11.78643
       H   -12.57882    7.36197   -5.69249
       O   -12.11916    6.56922   -6.09083
      H1   -12.70475    6.37965   -6.87167
       H   -16.89571    6.82133  -13.96370
       O   -17.32436    7.04867  -14.73049
      H1   -18.17360    6.52210  -14.69191
       H   -14.49061    5.37276  -13.71763
       O   -14.10132    4.52732  -14.00499
      H1   -14.27569    4.50962  -14.97651
       H   -18.13016   -1.13294  -12.40563
       O   -19.04973   -0.93716  -12.00599
      H1   -19.32287   -0.31550  -12.71178
       H   -14.80338    6.10149   -7.93511
       O   -14.97414    7.04432   -7.65183
      H1   -15.79532    7.23413   -8.05261
       H   -15.23574    7.30718  -16.84270
       O   -16.07710    7.70759  -17.14581
      H1   -16.66538    7.60817  -16.38232
       H   -17.27349    7.86824  -19.89934
       O   -17.56550    8.52836  -19.23139
      H1   -17.04626    8.27098  -18.51973
       H   -11.06786   10.54197   -6.50921
       O   -11.92432   10.75386   -6.06342
      H1   -12.57166   10.55351   -6.78337
       H   -11.88852    9.45954  -17.64244
       O   -12.44486   10.23271  -17.39064
      H1   -11.73154   10.90542  -17.37553
       H   -15.46000   10.99687  -14.96404
       O   -16.12026   11.71061  -14.99780
      H1   -16.81121   11.40533  -14.33476
       H   -15.70121   15.90140  -16.69044
       O   -15.48283   14.94086  -16.75066
      H1   -15.29445   14.69992  -15.75290
       H   -17.96406    7.11589   -8.69430
       O   -18.90022    7.03201   -8.51848
      H1   -18.99111    6.47050   -7.77010
       H    -9.37248    4.01389  -13.50615
       O    -9.30085    4.89430  -13.18034
      H1   -10.23486    5.28579  -13.33384
       H   -16.34465    5.09928   -5.53294
       O   -16.64955    5.93346   -5.13068
      H1   -15.80420    6.37012   -5.04733
       H   -12.95907    1.00088  -12.46106
       O   -13.69361    1.47285  -12.00516
      H1   -13.33582    2.37322  -12.05218
       H   -16.69596    9.61125   -4.44133
       O   -15.87987   10.03079   -4.66617
      H1   -16.01694   10.91666   -4.27045
       H   -12.03979   11.66493  -10.11649
       O   -11.41026   11.14926   -9.59947
      H1   -10.57663   11.61404   -9.80682
       H   -17.99621    7.71739  -12.30949
       O   -18.12014    8.69990  -12.31956
      H1   -17.50088    8.86625  -11.59968
       H   -17.82618    2.22933  -15.74882
       O   -18.10333    1.96463  -14.89536
      H1   -17.36926    2.14292  -14.30294
       H   -13.97089    4.59803  -19.44896
       O   -14.76544    5.17910  -19.36146
      H1   -14.97809    5.04382  -18.44805
       H   -14.11460    3.61172  -16.94058
       O   -14.70467    4.25559  -16.51882
      H1   -15.61886    3.99923  -16.72290
       H   -15.16761    7.75759  -12.98226
       O   -15.23131    6.76082  -12.81373
      H1   -15.03648    6.71797  -11.87013
       H   -15.11462    2.86601   -6.04555
       O   -15.97423    3.24213   -5.74542
      H1   -15.84998    3.16999   -4.78948
       H   -18.74455   15.62274  -14.82111
       O   -18.09484   15.28794  -14.20932
      H1   -18.48154   14.48554  -13.83650
       H   -13.09177   12.46413  -15.26193
       O   -13.09670   13.21144  -15.81206
      H1   -13.26799   13.90879  -15.19996
       H   -16.29052   11.40552  -19.11227
       O   -16.02775   10.62009  -19.60030
      H1   -16.63222    9.85850  -19.45022
       H   -13.15538   10.24253  -13.73186
       O   -13.38905   10.67321  -14.54089
      H1   -12.82452   10.16321  -15.19636
       H   -10.81293    6.81530  -14.18698
       O   -11.51656    6.53912  -13.58636
      H1   -12.16712    6.22454  -14.29352
       H   -18.54466    5.19690  -12.91220
       O   -18.22396    5.68346  -12.17679
      H1   -18.96807    5.78887  -11.62197
       H   -11.45485    4.15128  -10.23747
       O   -12.07010    4.86581  -10.42755
      H1   -11.48637    5.62163  -10.53616
       H   -17.98225    5.23392  -16.62281
       O   -17.49406    4.38194  -16.83041
      H1   -18.06480    4.05626  -17.54812
       H   -18.98035   11.53711  -14.23805
       O   -18.37471   11.16712  -13.57879
      H1   -18.81347   10.28727  -13.43364
       H   -11.09874    9.38322   -9.23708
       O   -11.10352    8.55042   -8.75343
      H1   -10.47978    7.92277   -9.06784
       H   -18.53581   15.15311  -17.01138
       O   -18.07124   14.32418  -17.18164
      H1   -17.14503   14.55630  -16.89168
       H   -15.70708   12.59584   -8.99987
       O   -15.13895   13.25604   -9.34630
      H1   -14.61953   13.45079   -8.53894
       H   -17.59281   11.27080   -9.32902
       O   -16.78988   11.28585   -8.83318
      H1   -17.09806   11.65606   -7.97767
       H   -17.53179   12.65887  -17.64775
       O   -17.41949   11.69910  -17.63807
      H1   -16.92360   11.49344  -16.78882
       H   -18.50509    3.86978  -14.51595
       O   -19.21443    4.54855  -14.30360
      H1   -19.89809    4.23416  -14.96074
       H   -15.41054   12.29277  -11.04470
       O   -15.85142   12.08633  -11.87236
      H1   -15.48843   12.81119  -12.43162
       H   -16.54459   14.44529  -14.34520
       O   -15.62558   14.18547  -14.20377
      H1   -15.59478   13.30785  -14.61593
       H   -11.35928    6.03588  -16.71952
       O   -12.10496    6.42984  -16.27116
      H1   -12.31959    7.10724  -16.92851
       H   -13.24939    9.90709   -8.65685
       O   -13.78505   10.05176   -7.87844
      H1   -14.24523    9.16492   -7.87154
       H   -15.41501   10.40599  -12.79200
       O   -15.56888    9.54646  -13.28494
      H1   -16.53551    9.46476  -13.26223
       H   -18.49000   12.80424  -12.26531
       O   -18.93202   13.58513  -11.85058
      H1   -18.31479   13.81794  -11.19315
       H   -15.72701    9.09076   -9.78514
       O   -16.65581    8.72635   -9.86775
      H1   -17.12608    9.40341   -9.25905
       H   -19.93056    6.26097   -5.67277
       O   -19.41776    5.58362   -6.10793
      H1   -18.57466    5.73765   -5.84783
       H   -17.07873   -1.23884  -14.78457
       O   -16.51778   -0.49116  -15.05139
      H1   -17.05736    0.24698  -15.14467

