180
frame 10 | Written by MDAnalysis XYZWriter (release 2.4.3)
       H    -9.47231    9.95498  -11.77039
       O    -9.89817   10.69076  -12.20137
      H1    -9.59749   10.47132  -13.11093
       H   -13.06010    8.55925  -11.21102
       O   -13.50044    8.32163  -10.35896
      H1   -12.62765    8.17169   -9.90867
       H   -11.97625    4.13656  -11.96815
       O   -12.11979    3.45768  -12.66578
      H1   -12.80931    3.92670  -13.12291
       H    -9.80866    6.29691  -11.34209
       O   -10.08831    6.78754  -10.62762
      H1   -10.81246    7.32462  -10.96708
       H    -3.04840   11.96102   -9.03811
       O    -2.72531   11.07230   -9.19911
      H1    -1.79298   11.00558   -9.17002
       H   -13.01702    4.77139   -8.79776
       O   -13.63451    4.62392   -8.06150
      H1   -13.29298    3.78017   -7.68331
       H   -11.27264    9.61321  -12.31910
       O   -11.97778    8.89363  -12.47089
      H1   -11.62089    8.36799  -13.19403
       H    -3.56798    6.69296  -12.99502
       O    -3.43343    6.86970  -12.02104
      H1    -3.64224    7.86061  -12.05745
       H   -10.04784   13.03582  -15.82435
       O   -10.61541   12.52824  -16.46828
      H1   -11.46143   12.95237  -16.18019
       H    -5.48976   11.80198   -7.73543
       O    -4.67925   12.29311   -7.51717
      H1    -5.08495   12.88123   -6.85043
       H    -6.56023    4.00486  -14.86590
       O    -6.30811    4.65057  -14.12006
      H1    -7.10275    4.59938  -13.52385
       H    -4.90360    6.57259  -14.86516
       O    -4.06129    6.98687  -14.77925
      H1    -4.23944    7.84540  -15.31640
       H   -13.60980   13.27659  -10.69300
       O   -12.74044   12.89665  -10.86586
      H1   -12.55635   13.14846  -11.78643
       H   -12.57882    7.36197   -5.69249
       O   -12.11916    6.56922   -6.09083
      H1   -12.70475    6.37965   -6.87167
       H    -5.85369   15.81670  -13.20982
       O    -6.00842   15.10723  -12.61435
      H1    -6.95423   14.79535  -12.72201
       H   -10.31170    7.60306  -15.85351
       O    -9.63614    7.70105  -15.14821
      H1    -9.51515    8.65281  -15.15032
       H    -7.76730    8.75446  -10.66444
       O    -8.34171    9.49637  -10.22819
      H1    -8.03765    9.35430   -9.29922
       H    -9.90865    9.37729   -7.13947
       O    -9.38481    9.85382   -6.43600
      H1    -9.14525    9.11756   -5.88699
       H    -8.03498    7.61457   -7.40109
       O    -7.36589    7.89579   -8.02141
      H1    -7.26252    7.04061   -8.51060
       H    -6.82536   11.16251  -11.65768
       O    -6.72885   12.00127  -12.07399
      H1    -6.76060   11.69869  -13.00583
       H    -4.81364    9.43055  -16.55155
       O    -4.89790    9.57582  -15.57422
      H1    -5.72851   10.08668  -15.46279
       H    -7.99072    7.04414  -15.31871
       O    -7.02703    7.03697  -15.14433
      H1    -6.86146    6.11507  -14.93311
       H   -11.06786   10.54197   -6.50921
       O   -11.92432   10.75386   -6.06342
      H1   -12.57166   10.55351   -6.78337
       H    -8.48695   11.04684  -15.11128
       O    -9.28392   10.48302  -15.09054
      H1    -9.94164   11.14018  -15.44527
       H    -9.37248    4.01389  -13.50615
       O    -9.30085    4.89430  -13.18034
      H1   -10.23486    5.28579  -13.33384
       H    -8.95277   14.70270   -7.07312
       O    -8.92796   13.71617   -6.73320
      H1    -9.73887   13.68697   -6.14968
       H   -12.03979   11.66493  -10.11649
       O   -11.41026   11.14926   -9.59947
      H1   -10.57663   11.61404   -9.80682
       H    -8.19221   14.46784  -10.94850
       O    -8.59863   13.83671  -11.61611
      H1    -7.85069   13.20326  -11.84856
       H    -9.08741   17.01498   -7.76557
       O    -8.88260   16.14395   -8.15552
      H1    -9.27549   16.20077   -9.10663
       H    -9.23996   13.94639  -13.69718
       O    -8.99070   13.77841  -14.61352
      H1    -8.12107   14.16035  -14.62114
       H    -7.10011    7.94055  -12.98279
       O    -6.98021    8.04294  -12.05334
      H1    -6.06455    8.35287  -11.85536
       H    -5.69577   14.43775   -9.51058
       O    -4.70351   14.28207   -9.48571
      H1    -4.69629   13.52150   -8.83947
       H    -6.86281   13.53797   -6.11892
       O    -6.07327   13.95872   -5.76008
      H1    -6.15700   13.67354   -4.84522
       H    -7.44529   16.17675   -9.55313
       O    -7.13873   15.41078  -10.05171
      H1    -6.72757   15.79175  -10.82014
       H   -13.15538   10.24253  -13.73186
       O   -13.38905   10.67321  -14.54089
      H1   -12.82452   10.16321  -15.19636
       H    -5.88628    4.55557   -8.32216
       O    -6.75222    4.85765   -8.55915
      H1    -6.65679    4.95222   -9.50138
       H   -10.15670    6.97433   -6.18982
       O    -9.26097    7.24867   -6.10769
      H1    -9.03158    7.08115   -5.14200
       H   -10.47447    2.71462   -8.65938
       O   -10.23668    2.94765   -9.56640
      H1    -9.95553    2.04372   -9.87439
       H   -10.69021   15.61822  -10.46165
       O   -10.04283   16.36209  -10.43822
      H1   -10.53354   17.21984  -10.57500
       H    -8.64443   12.86733   -9.96538
       O    -8.89876   12.34173   -9.18655
      H1    -9.21172   13.06090   -8.58497
       H    -3.65958   13.80630  -12.67051
       O    -3.23681   13.51343  -11.85311
      H1    -4.02015   13.36133  -11.35012
       H    -4.58272   10.03520   -8.62297
       O    -4.77408    9.14999   -9.03366
      H1    -5.61792    8.97924   -8.65101
       H    -4.09845    9.81292   -3.34538
       O    -5.00283   10.00070   -3.49503
      H1    -4.90674    9.72826   -4.42998
       H   -10.81293    6.81530  -14.18698
       O   -11.51656    6.53912  -13.58636
      H1   -12.16712    6.22454  -14.29352
       H    -7.85727    5.22622  -11.64750
       O    -6.92777    5.38643  -11.45516
      H1    -6.79735    6.28856  -11.70690
       H    -9.14516   12.21648   -4.98143
       O    -9.06573   12.28773   -4.03902
      H1    -9.56762   11.55125   -3.64285
       H   -11.45485    4.15128  -10.23747
       O   -12.07010    4.86581  -10.42755
      H1   -11.48637    5.62163  -10.53616
       H    -6.45576   12.41735  -15.24613
       O    -6.43371   11.55588  -14.79725
      H1    -5.57479   11.53108  -14.35497
       H    -2.33096   10.99664  -14.27934
       O    -3.24718   11.26035  -14.33660
      H1    -3.61656   10.60566  -14.94550
       H   -11.09874    9.38322   -9.23708
       O   -11.10352    8.55042   -8.75343
      H1   -10.47978    7.92277   -9.06784
       H    -8.02629    2.64640   -9.12500
       O    -7.36189    2.05731   -9.54823
      H1    -7.89627    1.65497  -10.22138
       H    -2.92577   12.47856   -4.79720
       O    -2.50673   11.85805   -5.46104
      H1    -3.19860   11.65649   -6.11397
       H    -3.49245   10.27927  -12.22184
       O    -4.03810    9.61764  -11.81286
      H1    -3.76306    9.77789  -10.89009
       H    -2.04632    7.25579   -8.26230
       O    -2.93018    7.28231   -7.85527
      H1    -3.40598    7.98168   -8.28451
       H   -12.39208   13.49780   -6.88805
       O   -12.94666   13.72540   -7.66282
      H1   -12.29455   13.33473   -8.27668
       H    -3.52442    4.29937   -7.57976
       O    -4.25578    4.87984   -7.29981
      H1    -3.92166    5.66684   -7.65463
       H   -12.65269    9.43506   -5.17385
       O   -13.00755    8.69915   -4.60687
      H1   -13.93292    8.90769   -4.58219
       H   -13.24939    9.90709   -8.65685
       O   -13.78505   10.05176   -7.87844
      H1   -14.24523    9.16492   -7.87154
       H    -7.64875   10.42188   -7.10687
       O    -7.09954   10.90757   -7.67186
      H1    -7.81385   11.36495   -8.17356
       H    -7.71480    3.96405   -5.29779
       O    -8.50263    4.37423   -5.68848
      H1    -8.13212    5.20238   -6.09284

