180
frame 0 | Written by MDAnalysis XYZWriter (release 2.4.3)
       H    -5.37141   11.60217  -13.44671
       O    -5.06520   12.12850  -12.73392
      H1    -5.18821   11.53121  -12.00739
       H    -4.11233   14.56976  -10.47154
       O    -4.32906   14.49814  -11.43600
      H1    -4.36745   13.62225  -11.79373
       H     1.72247   12.11137   -8.41110
       O     2.70026   12.24282   -8.44997
      H1     2.86338   13.17670   -8.60524
       H    -4.97334    9.74574   -8.01034
       O    -5.86657    9.95594   -7.67621
      H1    -6.39304    9.49322   -8.34690
       H    -7.62082    7.98752   -9.48468
       O    -7.61509    8.95535   -9.41638
      H1    -8.54676    9.21489   -9.31866
       H     0.88054    3.53161   -8.30953
       O     1.16548    4.48194   -8.10110
      H1     0.33452    4.98713   -8.09328
       H     4.08446   12.21206  -12.29233
       O     4.07699   11.86166  -11.42074
      H1     3.16831   11.77026  -11.16060
       H     2.98089   15.15207  -11.29112
       O     3.13666   15.16735  -12.28053
      H1     2.38096   14.95515  -12.79213
       H    -2.75949    7.17158   -6.52751
       O    -2.70447    8.11861   -6.78836
      H1    -2.94380    8.15154   -7.72939
       H    -0.88250    5.58300  -14.07976
       O    -1.48374    4.93878  -14.50040
      H1    -1.45386    4.21248  -13.80198
       H    -3.98557    6.26180  -11.99229
       O    -4.30484    5.37189  -11.92743
      H1    -4.69670    5.30107  -12.79342
       H    -6.08073    7.93337  -17.30427
       O    -6.01476    8.88002  -17.16120
      H1    -5.98190    9.01008  -16.20860
       H    -1.09235   12.05503  -15.42561
       O    -1.25470   12.91393  -14.93604
      H1    -1.36264   13.66473  -15.48622
       H    -5.46518    4.09992  -14.72051
       O    -5.38628    5.00604  -14.48720
      H1    -4.87620    5.41516  -15.24994
       H    -0.59842    7.28951  -16.55764
       O     0.33769    7.32599  -16.19849
      H1     0.42541    8.27930  -16.09857
       H     1.59451    9.11132  -18.76148
       O     0.98056    9.78955  -19.03624
      H1     0.92763    9.78895  -20.00951
       H     0.56350    6.88610  -10.07217
       O     0.23037    6.02115  -10.34305
      H1     1.04888    5.47026  -10.44092
       H     0.60949   10.67951  -15.92253
       O    -0.08021   10.15614  -15.59755
      H1    -0.88830   10.15055  -16.15957
       H     3.51021    8.59232  -11.85551
       O     4.24605    8.89700  -11.26562
      H1     4.20851    9.85965  -11.27859
       H    -6.01351   13.92205  -10.37452
       O    -6.81168   13.87947   -9.83648
      H1    -7.57008   13.49288  -10.39732
       H    -0.52365    1.21990  -11.80487
       O    -0.20318    1.82137  -11.18988
      H1    -0.82817    2.55786  -11.26747
       H    -3.26324    8.80491   -9.80925
       O    -3.45945    9.50350   -9.15393
      H1    -3.09041   10.36998   -9.33747
       H    -6.33633    6.87759  -14.24818
       O    -7.11535    7.45507  -14.20458
      H1    -7.13120    7.51219  -13.27313
       H     3.13009    5.21894  -10.25189
       O     2.61139    4.76522  -10.94538
      H1     2.96645    5.11733  -11.77313
       H    -0.16740   10.65483   -7.58833
       O     0.03453   11.32940   -8.24044
      H1    -0.80995   11.49780   -8.63302
       H    -4.89450    9.41321  -14.33910
       O    -5.53373   10.06152  -14.69312
      H1    -6.30989    9.89238  -14.13325
       H    -0.24328   11.99189  -12.16706
       O    -1.14228   11.69503  -12.28076
      H1    -1.45560   12.01687  -13.09773
       H     0.21588    6.16383  -12.11206
       O     0.51937    6.29345  -13.06532
      H1     1.28199    5.73382  -13.33670
       H     1.27479   10.27091  -10.41813
       O     1.46440   11.11787  -10.85130
      H1     1.33400   11.77489  -10.21861
       H     1.79520    7.28377  -17.54832
       O     2.58679    7.80699  -17.81572
      H1     2.73345    8.42621  -17.07507
       H     3.82432    8.87166  -15.26293
       O     2.97905    9.12766  -15.66625
      H1     2.38786    9.05107  -14.91948
       H    -1.88546    6.54031  -10.19502
       O    -2.33116    7.34677  -10.50071
      H1    -1.65110    7.84228  -11.04041
       H     2.74126   12.43481  -16.38567
       O     3.19388   12.71166  -15.55436
      H1     4.10615   12.58474  -15.73418
       H    -2.83569    3.03233  -12.39903
       O    -2.18181    3.35283  -11.82058
      H1    -2.68402    4.19075  -11.53026
       H    -0.26440    9.96237   -5.57871
       O    -0.34971    9.35872   -6.35496
      H1    -1.26370    9.04708   -6.43502
       H     0.09319    2.29115  -15.68774
       O     0.43956    3.21195  -15.61655
      H1    -0.31424    3.85624  -15.69592
       H    -3.08093    7.02587  -16.24202
       O    -3.43230    6.65117  -15.39290
      H1    -2.72481    6.01185  -15.18761
       H    -6.80079   13.16051  -13.01807
       O    -7.68502   13.42598  -13.31244
      H1    -7.57745   14.36600  -13.57499
       H     3.72964    8.81977   -9.72603
       O     3.42323    8.78219   -8.79856
      H1     3.69464    7.88006   -8.62954
       H    -5.57764    4.79378  -10.50097
       O    -6.41943    4.39421  -10.22313
      H1    -6.27625    4.00850   -9.32344
       H    -0.72774   10.20209  -19.00223
       O    -1.63048   10.43262  -19.19389
      H1    -2.03434    9.57321  -19.52155
       H    -5.46934   13.19670   -7.98060
       O    -5.18069   12.54315   -7.29928
      H1    -5.63165   11.72298   -7.58308
       H    -2.54065    7.26541  -18.46433
       O    -1.68367    6.95992  -18.19168
      H1    -1.68962    5.95968  -18.17859
       H     2.32377   13.98801  -14.68307
       O     1.53914   14.44316  -14.46282
      H1     0.86325   13.82456  -14.72042
       H    -2.86584    8.84645  -13.01458
       O    -3.70947    8.52295  -13.35971
      H1    -3.48806    7.89755  -14.11896
       H     7.09669    6.91223  -12.24120
       O     6.13262    6.80015  -12.39227
      H1     5.71577    7.59978  -12.10198
       H    -3.59741   14.45539   -7.95954
       O    -3.58176   14.63919   -8.90170
      H1    -2.76869   15.17849   -9.03685
       H    -1.73860   15.71411  -13.25520
       O    -2.07781   16.57203  -13.43184
      H1    -2.93175   16.58442  -12.91180
       H    -0.78925    9.03835  -13.19155
       O    -1.16633    9.12664  -12.34374
      H1    -1.06240   10.15074  -12.21542
       H     0.51964   12.82225  -17.92511
       O     0.95391   12.05588  -17.47198
      H1     0.88689   11.31692  -18.08016
       H    -2.26310    4.87640   -7.35375
       O    -2.40063    4.49289   -8.26017
      H1    -2.93287    3.70981   -8.04294
       H    -7.87018   11.19253  -13.02959
       O    -7.82031   10.28183  -12.63888
      H1    -7.36599   10.36932  -11.74754
       H     1.36891    9.12903  -12.52330
       O     1.87788    8.53952  -13.05012
      H1     1.35632    7.75719  -13.04328
       H    -0.02268    8.92514   -8.70718
       O     0.69941    8.61945   -9.27860
      H1     1.53876    8.79299   -8.86346
       H    -2.06644   12.02464  -10.72072
       O    -2.31328   12.09704   -9.76666
      H1    -2.40959   13.06655   -9.67759
       H     4.37484    4.80514   -8.44767
       O     3.76684    5.56658   -8.56593
      H1     2.92157    5.16309   -8.32981
       H    -6.52356   11.82643  -10.06291
       O    -6.09798   11.11444  -10.55224
      H1    -6.45448   10.38597  -10.05437
       H     2.88206    4.14268  -13.39892
       O     2.99336    5.07373  -13.42017
      H1     3.84392    5.28270  -13.81960
       H    -4.37634    8.67489  -20.04514
       O    -3.83164    8.59699  -19.21514
      H1    -4.31837    9.07442  -18.51583
       H    -3.72725   10.16961  -16.39318
       O    -2.80193    9.97925  -16.57006
      H1    -2.63534   10.26510  -17.47238

