180
frame 10 | Written by MDAnalysis XYZWriter (release 2.4.3)
       H    -4.10308    4.40290    5.63256
       O    -4.52990    4.82920    4.84279
      H1    -5.35651    5.21124    5.23717
       H    -0.30400    0.47708    6.78645
       O    -0.49311    1.30250    6.35649
      H1    -0.66645    1.08473    5.41852
       H    -1.94425    4.15671    6.35432
       O    -2.77611    3.66161    6.38544
      H1    -2.56647    3.02424    5.60394
       H     0.58890    0.22714   -0.50166
       O     0.17862   -0.59573   -0.14487
      H1    -0.69808   -0.22925    0.08615
       H    -5.85328    0.03314    8.62097
       O    -5.92936   -0.78230    8.07922
      H1    -6.76078   -0.64794    7.62444
       H    -4.20410    8.39662    0.95419
       O    -3.76650    7.70826    0.50054
      H1    -3.45877    7.14229    1.22430
       H    -9.96396   -2.42574    1.20653
       O    -9.50997   -1.67787    0.79227
      H1    -8.69641   -2.12792    0.62402
       H    -9.73017    2.34343   -1.78499
       O    -9.92055    1.94583   -0.95325
      H1    -9.00962    1.87964   -0.63932
       H    -3.35300    4.77681   -3.95071
       O    -2.67220    5.38121   -4.25127
      H1    -3.02709    5.61721   -5.08578
       H   -12.84406    3.73617    3.03387
       O   -13.68808    4.04102    2.65176
      H1   -13.38359    4.68787    2.02880
       H    -2.73012    8.53881    6.15072
       O    -2.43318    8.89387    5.29121
      H1    -2.33704    8.06325    4.80649
       H    -2.48874   -0.84208   -1.00310
       O    -2.66395   -0.87841   -0.05593
      H1    -3.41347   -0.24818    0.17864
       H    -4.78024    4.67156   -2.19253
       O    -4.53413    3.85338   -2.67584
      H1    -5.15092    3.92523   -3.39261
       H    -9.68756    4.63762    6.88362
       O    -8.96508    4.33687    7.43734
      H1    -9.26186    3.52396    7.89527
       H    -5.39323   -1.25104    3.44693
       O    -5.03094   -1.59181    2.63616
      H1    -5.82073   -2.12404    2.30181
       H    -7.26578    4.18158    7.66999
       O    -6.35833    3.86952    7.82818
      H1    -6.03788    4.66535    8.23218
       H    -6.53369    6.14351   -1.20642
       O    -5.55756    6.10925   -1.57023
      H1    -5.24387    6.79583   -0.91841
       H   -11.56263    0.24694    4.14255
       O   -11.01444   -0.47407    4.42007
      H1   -11.59984   -1.25474    4.40874
       H    -6.77331    6.16742    4.44413
       O    -6.61513    6.18482    5.37823
      H1    -5.98079    6.98164    5.50647
       H    -4.31628    8.85354    4.94980
       O    -5.27717    8.83353    4.80107
      H1    -5.66824    9.22143    5.61728
       H    -3.96236    9.62501    2.44396
       O    -4.88543    9.70583    2.12141
      H1    -5.36583    9.55957    2.95787
       H   -12.12652    0.96364    0.85762
       O   -11.69664    0.34422    1.42448
      H1   -10.86762    0.13465    0.95327
       H   -10.57379    6.00060    3.00107
       O    -9.98835    5.22151    3.04869
      H1    -9.75733    4.82745    2.15242
       H    -7.76369    2.30726    4.98059
       O    -8.70589    2.11023    5.20948
      H1    -8.80945    2.49784    6.07019
       H    -1.11136    7.85492   -0.88876
       O    -1.19311    8.26357   -0.03826
      H1    -2.11562    7.87893    0.08348
       H    -9.69417   -0.00325    3.31628
       O    -8.86987    0.01613    2.81111
      H1    -9.15684   -0.57904    2.13716
       H    -4.13390   -3.11873    2.94892
       O    -4.09183   -4.09641    2.83175
      H1    -3.67998   -4.30268    3.71031
       H    -1.05317    5.88246    1.40390
       O    -1.98962    5.61923    1.51073
      H1    -2.08915    6.01399    2.40345
       H    -6.82820   -3.61328    1.58481
       O    -6.82929   -2.77469    1.04715
      H1    -6.17929   -3.05008    0.31341
       H    -7.94334    9.82433    5.18418
       O    -8.00034    9.64707    4.23433
      H1    -7.56962    8.78243    4.08016
       H    -8.16399    5.43737    2.87539
       O    -7.23891    5.77459    2.84728
      H1    -6.76306    4.97285    2.48404
       H    -1.57907    0.84557    3.42460
       O    -0.69767    0.51107    3.67851
      H1    -0.79893   -0.38538    3.35392
       H     0.53177    8.76848    2.29223
       O     0.39852    8.38069    3.17958
      H1     0.15610    7.51471    2.83308
       H    -6.19934    0.17876   -2.48939
       O    -6.31077   -0.73058   -2.81508
      H1    -5.78702   -1.22611   -2.15816
       H    -4.25081   -0.82291    6.03447
       O    -3.47465   -0.85445    5.46632
      H1    -2.87250   -1.33073    6.06336
       H   -10.16099    1.71229    7.99514
       O    -9.19789    1.71348    8.17398
      H1    -9.14261    1.31713    9.07909
       H    -1.90250    5.82756    4.34823
       O    -2.58079    6.40533    3.97824
      H1    -3.31851    5.75918    4.28312
       H    -7.55004    6.83056    7.03258
       O    -7.97046    7.59167    7.50410
      H1    -8.22615    7.30350    8.41690
       H   -11.53338    1.66493    2.61034
       O   -11.42303    2.09286    3.49506
      H1   -10.52240    1.87101    3.71909
       H     1.03145    4.95531    2.67026
       O     0.85799    5.85388    2.32441
      H1     1.70848    6.03199    1.87688
       H     0.26462    3.54409    4.50690
       O    -0.30126    4.24053    4.82092
      H1     0.31191    4.94858    5.10574
       H    -5.77479    2.44410   -1.88022
       O    -6.64361    2.04653   -1.71614
      H1    -6.64024    1.97530   -0.74856
       H    -9.14428    5.26861   -0.10611
       O    -9.67612    4.66975    0.44996
      H1    -9.78402    3.90125   -0.15159
       H    -3.53148    2.97512   -0.14436
       O    -3.53021    3.25304    0.79666
      H1    -3.03205    4.09683    0.76297
       H    -3.30749    2.95324    3.65814
       O    -2.94786    2.07198    3.93189
      H1    -3.70939    1.61564    4.25644
       H    -3.88088   -2.46232   -0.86578
       O    -4.80453   -2.77364   -0.99660
      H1    -4.65709   -3.73267   -0.91106
       H    -7.87254    3.72794   -2.13516
       O    -8.74397    3.96886   -2.41431
      H1    -8.65726    4.85119   -2.81929
       H   -10.46931    4.80816    4.70091
       O   -10.86347    5.03438    5.58559
      H1   -10.62005    5.99518    5.69738
       H    -7.93633    7.12033    0.89719
       O    -7.65746    6.98571    0.00506
      H1    -7.54131    7.90053   -0.34929
       H   -11.42019    8.26998    2.67965
       O   -11.62324    7.33262    2.71989
      H1   -12.14275    7.17128    3.54359
       H    -7.76180   -0.49914    3.95873
       O    -7.00523   -0.71168    4.52935
      H1    -6.80699    0.12946    4.92978
       H    -6.63324    0.83652    1.04528
       O    -7.36141    1.46179    1.01468
      H1    -7.91259    1.06436    1.69818
       H   -12.55924    6.58234    1.48136
       O   -13.06358    6.03583    0.80601
      H1   -12.31076    5.48134    0.54029
       H    -4.65188    0.07328    1.93398
       O    -4.47728    0.59554    1.16044
      H1    -4.10417    1.41310    1.56656
       H    -8.93331   -0.14320    7.52902
       O    -8.58663   -0.86966    7.02697
      H1    -8.56177   -0.48749    6.15049
       H    -9.66824   -1.43552   -1.01128
       O   -10.15038   -1.08641   -1.74667
      H1   -10.68411   -1.83175   -2.03235
       H    -5.04683    1.75732   10.35669
       O    -5.88436    1.40058   10.06243
      H1    -5.98449    2.04495    9.30774
       H    -9.53437    7.08984   -2.89469
       O    -8.63898    6.85154   -3.12717
      H1    -8.16874    7.42247   -2.46884
       H    -6.38488    2.79713    1.94829
       O    -5.74898    3.48310    2.35088
      H1    -4.98096    3.50437    1.76109
       H    -5.92140    2.91041    5.76125
       O    -6.02094    2.49711    4.91531
      H1    -5.78751    3.25019    4.31726

