180
frame 1 | Written by MDAnalysis XYZWriter (release 2.4.3)
       H    -5.49474   -9.94149   19.04875
       O    -6.07305  -10.64853   18.71801
      H1    -5.52640  -11.47313   18.82918
       H    -0.92197  -12.77017   17.64890
       O    -0.09340  -12.40166   17.29350
      H1    -0.27601  -11.51028   16.90619
       H    -9.70984  -19.45596   13.98150
       O    -9.96015  -18.96626   14.78114
      H1    -9.58157  -19.49591   15.56037
       H    -6.52775  -13.01674    8.28301
       O    -5.95719  -13.63173    7.82993
      H1    -5.00463  -13.40758    8.03651
       H    -8.18055  -11.83184   14.18905
       O    -7.65990  -11.00987   14.35685
      H1    -7.08165  -10.91214   13.60418
       H    -5.61447  -15.94143    9.19763
       O    -6.49204  -16.34008    9.38339
      H1    -7.04529  -16.28455    8.58870
       H     0.56853  -18.29819   10.29033
       O     0.12042  -17.88186   11.04183
      H1    -0.17079  -18.65342   11.54200
       H    -6.47227  -13.05724   10.97168
       O    -6.93064  -13.86246   11.09310
      H1    -6.54417  -14.28511   10.32896
       H   -12.09316  -16.52430   17.50310
       O   -12.50904  -16.96382   18.25321
      H1   -13.16523  -16.33234   18.54135
       H     1.54424  -17.56388   12.64098
       O     1.72055  -18.10658   13.45095
      H1     0.93355  -18.68704   13.36270
       H   -14.07904  -12.39371   16.53649
       O   -13.72941  -12.24672   15.70284
      H1   -13.93140  -13.09958   15.25237
       H    -5.91977  -14.54901   12.65408
       O    -5.50987  -15.04550   13.40839
      H1    -5.34791  -14.30377   14.02334
       H   -14.60947  -13.77935   18.61059
       O   -14.47263  -14.41447   17.92650
      H1   -13.60262  -14.24188   17.51999
       H   -13.12291  -20.07976   18.96183
       O   -12.17021  -19.78387   19.02497
      H1   -12.30066  -18.88157   18.66759
       H    -4.65851  -13.03637   17.29776
       O    -4.50356  -12.87295   16.33036
      H1    -4.90860  -11.94903   16.34026
       H    -4.31460  -16.68994   10.76221
       O    -3.65260  -16.62669   10.05263
      H1    -3.46089  -17.53944    9.83907
       H    -1.92182  -18.85604    7.71575
       O    -2.64324  -18.62879    8.37191
      H1    -3.36122  -19.26229    8.01979
       H    -6.61912   -9.87288   17.25450
       O    -6.39733   -9.56851   16.30947
      H1    -6.73286  -10.39809   15.85490
       H    -3.98768  -11.52627   12.23399
       O    -3.57483  -11.81452   11.44178
      H1    -3.24626  -10.97335   11.12078
       H   -11.04802  -12.19276   12.20950
       O   -11.00379  -12.51861   11.29465
      H1   -11.85367  -12.89540   11.18229
       H    -5.48367  -14.02944   18.91146
       O    -5.11550  -13.12076   19.13640
      H1    -4.75151  -13.34261   20.00997
       H   -14.51877  -20.03462   13.12936
       O   -15.32305  -19.62522   13.53333
      H1   -15.14073  -18.69325   13.20876
       H     0.76131  -16.95089   15.93209
       O     0.18006  -16.56297   16.59199
      H1    -0.35593  -17.33522   16.86333
       H    -1.20950  -13.77662   10.34265
       O    -1.44798  -12.87102   10.00943
      H1    -2.19522  -12.67714   10.60362
       H   -10.35787  -17.66402    9.46689
       O   -10.99950  -17.58198    8.74153
      H1   -11.44010  -16.73034    8.83287
       H    -2.10765  -15.87234   10.33855
       O    -1.17133  -15.70346   10.50532
      H1    -0.84292  -16.61716   10.66266
       H    -1.64530  -14.03464   19.20053
       O    -2.20509  -13.72124   18.45741
      H1    -2.59941  -14.58506   18.24420
       H    -4.41518  -17.40855    6.92473
       O    -5.10773  -17.99481    6.52911
      H1    -5.92201  -17.40214    6.60490
       H    -8.04095  -15.51175    7.41210
       O    -7.52487  -16.22548    7.02633
      H1    -8.21054  -16.83189    6.60951
       H    -3.16275  -17.21011   17.51097
       O    -3.28215  -16.19235   17.44356
      H1    -4.26202  -16.25628   17.52904
       H   -11.44657  -19.17007    9.98666
       O   -11.77773  -19.18628   10.91653
      H1   -11.50598  -18.29002   11.29165
       H    -8.01774  -15.75958   15.92528
       O    -8.47756  -15.02026   16.39450
      H1    -8.75998  -14.42314   15.69488
       H   -14.50400  -17.25227   11.70330
       O   -14.72253  -16.76987   12.48802
      H1   -15.65113  -16.51502   12.45397
       H   -11.34553  -15.46841   14.60641
       O   -11.34162  -14.47490   14.50023
      H1   -12.29498  -14.29253   14.49493
       H     0.84490  -14.81983   14.73916
       O     0.95660  -14.29775   13.95228
      H1     0.04370  -14.33375   13.54578
       H   -12.92011  -14.96575   11.28754
       O   -12.78712  -14.48475   10.45565
      H1   -13.71439  -14.52769   10.03555
       H    -8.80468  -19.07011    7.70562
       O    -8.38293  -19.88259    8.02737
      H1    -7.79582  -19.50103    8.71894
       H   -10.18703  -17.54741   13.05280
       O   -10.82548  -17.00218   12.59237
      H1   -10.19474  -16.53677   12.08711
       H   -11.34389  -14.21713   16.37500
       O   -11.57243  -14.09875   17.34275
      H1   -11.07040  -13.30956   17.62302
       H    -2.47489  -10.39333   19.20034
       O    -2.76578  -11.17864   19.66077
      H1    -2.77053  -11.91712   19.02474
       H    -0.84008  -19.19521   17.36109
       O    -1.70913  -18.80455   17.12845
      H1    -2.21853  -19.06226   17.95152
       H    -3.51297  -15.60234   14.82131
       O    -2.59764  -16.02659   14.81265
      H1    -2.35496  -16.02419   15.78571
       H    -8.79706  -13.97661   19.69860
       O    -8.51473  -13.43749   18.94918
      H1    -8.87979  -13.91962   18.16380
       H    -4.48408  -18.34544   15.32199
       O    -4.80835  -18.56547   16.16934
      H1    -4.22391  -19.28276   16.51686
       H   -14.86179  -17.15275   17.62581
       O   -15.34940  -17.97740   17.81872
      H1   -14.96377  -18.62500   17.21875
       H    -3.03619  -12.17784   14.99872
       O    -2.45175  -12.08854   14.21534
      H1    -2.24583  -13.02330   14.00571
       H    -9.92582  -16.50257   16.29455
       O   -10.88826  -16.82788   16.20006
      H1   -10.67612  -17.51799   15.57321
       H   -14.31640  -15.44301   13.64219
       O   -14.15822  -14.69802   14.23249
      H1   -14.82825  -14.09826   13.92427
       H    -9.99237  -13.29510   13.93527
       O    -8.99437  -13.32446   13.95736
      H1    -8.80223  -13.75014   13.05930
       H   -10.11752  -14.14993   11.10929
       O    -9.50255  -14.91348   11.33336
      H1    -8.60282  -14.57603   11.17244
       H   -14.55137  -19.45319   10.26208
       O   -14.42819  -18.50666   10.35261
      H1   -13.48257  -18.50643   10.24234
       H    -8.38422  -18.17974   15.11794
       O    -7.77528  -17.62274   15.57580
      H1    -7.01108  -17.59484   15.00258
       H    -2.65274  -17.56710   14.28591
       O    -2.91856  -18.41344   13.88263
      H1    -3.71770  -18.18952   13.36821
       H    -6.16624  -19.32422   10.16902
       O    -6.88072  -18.89698   10.62362
      H1    -6.99409  -18.06919   10.01330
       H    -9.97567  -11.99967   18.65613
       O   -10.62947  -11.52985   18.13392
      H1   -11.42879  -11.64196   18.64470
       H    -5.71208  -16.91827   12.73922
       O    -5.35783  -17.80279   12.60340
      H1    -6.09297  -18.30279   12.27210
       H    -4.54862  -18.51659   19.11380
       O    -3.73301  -18.93416   18.89139
      H1    -3.46956  -19.46089   19.61059
       H    -7.17445  -15.46618   17.60629
       O    -6.31711  -15.41376   18.07314
      H1    -6.47116  -16.06551   18.84752
       H    -1.90428  -15.17350   13.53171
       O    -1.43984  -14.49244   13.01285
      H1    -1.46312  -14.91488   12.10897
       H    -4.97412  -11.43611   10.54277
       O    -5.93701  -11.29733   10.20767
      H1    -6.15947  -10.55120   10.80081

