180
frame 5 | Written by MDAnalysis XYZWriter (release 2.4.3)
       H    18.75110  -10.79765   13.34579
       O    19.34748  -11.39795   12.89386
      H1    19.83560  -11.91597   13.61997
       H    16.23001   -1.11227   13.43347
       O    16.43777   -1.70678   14.16416
      H1    16.08638   -1.24002   14.92043
       H    16.95305  -10.76368   14.98788
       O    17.14637  -11.49676   15.64704
      H1    16.37020  -11.48915   16.16771
       H    11.98825   -6.16027   10.26801
       O    11.01167   -6.11326   10.20834
      H1    10.68622   -5.30879   10.66910
       H    19.64446    0.52489   10.65751
       O    18.81996    0.57083   11.20155
      H1    18.78013    1.46333   11.54840
       H    10.66572   -3.22075   15.55820
       O    10.39790   -3.57077   16.38724
      H1    10.42092   -4.54081   16.36671
       H    17.66344  -15.41367   18.00734
       O    17.49965  -15.96903   17.26962
      H1    18.27047  -16.45075   16.98637
       H    15.84949   -1.58916   18.55807
       O    15.84265   -0.64288   18.69934
      H1    15.00853   -0.40271   19.16063
       H    18.37203   -4.70906   11.33933
       O    18.34042   -3.81708   10.90316
      H1    18.93968   -3.31168   11.46173
       H    16.52380    0.84939   15.87205
       O    15.91840    0.15060   16.19827
      H1    16.11095    0.04186   17.15654
       H    12.63297  -13.56928   14.74687
       O    11.95800  -13.43660   15.42049
      H1    11.07348  -13.57770   15.01258
       H    14.19502   -6.44383   11.16848
       O    13.67694   -6.66527   10.37425
      H1    14.23917   -6.26405    9.69952
       H    18.42080    2.59048   14.03686
       O    18.83946    2.84288   13.16752
      H1    19.75025    3.11363   13.43039
       H    12.22045  -11.54342   15.31850
       O    11.99396  -10.60436   15.06006
      H1    11.72287  -10.63842   14.13775
       H    19.12079  -12.42984   11.23311
       O    18.69189  -12.88299   10.49632
      H1    19.28661  -12.66136    9.81104
       H    14.56113  -13.11045   17.35327
       O    14.93941  -12.26220   17.11463
      H1    14.40707  -11.68774   17.73006
       H     9.36414   -8.25698   13.76999
       O     9.84150   -7.49753   13.33984
      H1    10.10033   -7.89346   12.50419
       H    12.72773   -7.55286   14.61459
       O    12.14469   -6.79641   14.83388
      H1    11.28909   -7.11228   14.41258
       H    13.04650   -2.54676   12.89864
       O    12.66376   -1.70523   13.11086
      H1    12.33128   -1.40999   12.22275
       H    11.56715  -10.27765   16.92333
       O    10.94536  -10.13167   17.68476
      H1    10.97514  -10.97704   18.17842
       H    12.20386   -8.60145   18.35993
       O    13.05847   -8.25721   18.62619
      H1    13.08060   -7.30032   18.70143
       H    13.48601    0.22326   16.15219
       O    12.71658   -0.32992   15.99546
      H1    12.60823   -0.35479   15.02775
       H    14.52862   -8.50536    9.69801
       O    14.94543   -9.27836    9.29604
      H1    14.22083   -9.73673    8.85728
       H    10.66151  -12.44188   19.59692
       O    11.09678  -12.67925   18.77892
      H1    10.55546  -13.36493   18.42944
       H    14.63021   -8.82365   14.78284
       O    13.98562   -8.92333   14.05218
      H1    13.42658   -9.64010   14.37455
       H    12.93947   -5.28235   19.69240
       O    13.55898   -5.57857   19.05149
      H1    13.37441   -4.93107   18.34972
       H    17.55739  -13.95832   19.68356
       O    18.32795  -14.15189   19.10279
      H1    18.67856  -13.39484   18.65291
       H    19.80698   -2.37441   18.65976
       O    19.86636   -1.45297   18.45654
      H1    19.14453   -0.99989   18.92198
       H    19.80527  -12.79448   16.37080
       O    19.32467  -12.24450   16.97886
      H1    18.51264  -11.95701   16.55266
       H    18.37813  -13.31373   14.03140
       O    18.65004  -14.10820   13.59294
      H1    17.93548  -14.69950   13.78355
       H    15.76468   -4.48254    8.54422
       O    16.25435   -3.68308    8.70876
      H1    16.84248   -3.84575    9.43983
       H    11.09562  -11.15889   12.32593
       O    11.52383  -10.27771   12.50440
      H1    12.48951  -10.41415   12.33522
       H    15.43322   -0.34707   11.38118
       O    16.10918   -0.00903   12.05127
      H1    16.94992   -0.17064   11.59538
       H    16.63275   -4.01681   18.13177
       O    16.53547   -3.33473   18.75156
      H1    17.31402   -3.29370   19.34434
       H     9.27999   -6.07177   16.04991
       O    10.00395   -6.15505   16.77174
      H1    10.65139   -6.64116   16.17871
       H    14.70950  -13.97376   13.67172
       O    13.85067  -13.50540   13.32354
      H1    14.12823  -12.70420   12.86403
       H    16.61443   -8.68653   18.94661
       O    16.71049   -9.56510   18.49222
      H1    17.15737  -10.12068   19.15902
       H    16.05395   -8.72483   16.54818
       O    15.34557   -8.20752   16.18254
      H1    14.77209   -8.08523   17.00472
       H    18.90429   -4.17299   14.84688
       O    17.96435   -4.00772   15.01096
      H1    17.82459   -3.11331   14.64248
       H    15.27831   -7.23955   13.03275
       O    15.41110   -6.54849   12.36475
      H1    15.02447   -5.74720   12.75264
       H    15.32105    2.34593   18.30466
       O    15.91776    2.79391   18.93758
      H1    16.78679    2.37493   18.84583
       H    14.93418  -14.61745   18.85998
       O    14.34411  -15.09147   18.19654
      H1    14.85816  -15.94187   18.19452
       H    11.84864   -2.78157   17.31659
       O    12.62559   -2.23769   17.75965
      H1    12.78964   -1.52990   17.10428
       H    14.40784   -9.88990   12.55838
       O    14.06234  -10.45836   11.86331
      H1    14.50475  -10.19622   11.03112
       H    19.30278    2.65645   18.54541
       O    18.77563    1.85631   18.31751
      H1    18.86300    1.21156   19.06378
       H     9.42822   -5.98833   19.90314
       O    10.22107   -6.51883   19.72277
      H1    10.27924   -6.32589   18.80300
       H    16.44757  -15.83759   15.69628
       O    15.91412  -15.79827   14.91243
      H1    15.20084  -16.43293   14.93044
       H    13.56008   -3.59540   16.25860
       O    13.82839   -4.50296   16.29029
      H1    14.78131   -4.50808   16.45600
       H    17.68186   -8.81409   13.65236
       O    17.13986   -9.59965   13.38477
      H1    17.13593   -9.78326   12.40683
       H     8.30102   -7.94823   17.75990
       O     8.39690   -8.83949   17.40808
      H1     9.24275   -9.18455   17.56603
       H    16.25152   -6.53495   16.40680
       O    16.49668   -5.66156   16.65770
      H1    17.15209   -5.39499   15.96628
       H    18.37632   -7.08731   11.06389
       O    18.24146   -6.33873   11.67572
      H1    17.27518   -6.40066   11.79594
       H    18.55622   -7.08229   13.43132
       O    18.45144   -7.41970   14.34007
      H1    19.00367   -6.78413   14.83064
       H    19.66549   -0.33075   14.96790
       O    19.20407   -1.13494   14.70572
      H1    18.27492   -0.91625   14.57486
       H    14.02831   -4.34408   14.47932
       O    14.30339   -4.10468   13.56515
      H1    15.01651   -3.45569   13.69050
       H    17.62337  -11.52869   10.42574
       O    17.31939  -10.57218   10.39403
      H1    16.44220  -10.53220    9.97381
       H    19.28966   -8.37347    8.87109
       O    19.25867   -8.41085    9.82245
      H1    18.66441   -9.12466    9.92320
       H    19.12741   -7.96564   17.33846
       O    19.13471   -7.08494   17.76873
      H1    18.15078   -6.96574   17.97676
       H    11.08011   -2.00543   13.69603
       O    10.13177   -2.22092   13.85342
      H1     9.73217   -1.35326   14.05418
       H    18.12888    1.87253   16.55193
       O    17.65686    2.22749   15.82851
      H1    17.18303    2.98458   16.16297

