180
frame 12 | Written by MDAnalysis XYZWriter (release 2.4.3)
       H    13.14877   18.39568   -2.77492
       O    13.08415   19.08201   -3.45040
      H1    13.36580   18.68723   -4.33046
       H     1.19052   15.36393  -11.94836
       O     1.98223   15.91254  -12.28009
      H1     1.51790   16.53557  -12.93990
       H     9.26763   10.14276  -11.25921
       O     9.81804   10.85103  -10.89267
      H1     9.21190   11.21506  -10.26688
       H     6.81310   12.15397  -12.64348
       O     7.02548   12.99516  -12.20961
      H1     6.47743   13.57180  -12.78192
       H     9.25497   13.31831   -6.26121
       O     9.35576   14.31838   -6.37572
      H1     9.03065   14.74547   -5.54344
       H     8.72339   18.17184  -15.09134
       O     8.97939   18.76663  -15.86626
      H1     8.93140   19.66364  -15.48934
       H    13.78381   19.05794   -6.50687
       O    14.41805   18.94797   -5.78137
      H1    14.99620   18.18325   -6.06772
       H     6.19364   18.26583  -16.53323
       O     6.49209   18.05372  -17.42513
      H1     7.29131   17.45828  -17.31368
       H     3.54718   19.44054  -15.49830
       O     4.30454   18.97036  -15.05927
      H1     4.88492   19.63531  -14.68134
       H     1.03153   15.06742   -2.25573
       O     1.87681   15.48878   -2.25032
      H1     1.75173   16.16793   -2.99014
       H     1.78425   19.67658   -7.61787
       O     2.62697   19.32418   -7.74852
      H1     2.98229   19.33215   -6.86859
       H     2.14488   18.31780   -3.51215
       O     1.55181   17.72169   -4.05553
      H1     2.17411   17.11098   -4.60100
       H     3.62668   17.37988  -11.27228
       O     4.30703   18.02065  -11.60731
      H1     3.71318   18.72470  -11.87927
       H    10.14873   18.31208  -11.69668
       O    10.34310   19.25193  -11.89118
      H1    10.59463   19.29903  -12.82828
       H    12.38057   12.13647   -8.67009
       O    11.57788   12.59528   -8.35172
      H1    11.78667   13.49786   -8.54282
       H    -1.74522   16.23281   -4.48564
       O    -1.28757   16.94307   -3.99931
      H1    -0.36381   16.91468   -4.36697
       H    10.40715   16.65091   -8.45039
       O    10.88902   15.83380   -8.20369
      H1    10.23969   15.34933   -7.67829
       H     8.52173   12.74102   -2.80615
       O     8.35529   13.71345   -2.61001
      H1     9.18665   13.82904   -2.06752
       H     1.86976   14.43967   -8.49866
       O     1.30298   13.75597   -8.84391
      H1     0.80017   13.56844   -8.06998
       H     8.14003   18.51520   -3.77765
       O     7.67960   18.33279   -4.66386
      H1     8.17744   17.56326   -4.82497
       H    11.13901   13.76344   -5.33500
       O    11.86080   13.66158   -4.65120
      H1    11.82596   12.71055   -4.56392
       H     3.30946   12.18293   -5.11590
       O     2.56470   11.70611   -5.57869
      H1     1.88724   12.02630   -5.00418
       H     3.89886   16.32422   -5.41966
       O     3.01628   15.86278   -5.48695
      H1     3.04534   15.82578   -6.48154
       H    12.36856   14.58351  -15.75187
       O    12.12725   15.07577  -14.93270
      H1    11.66779   15.86911  -15.30376
       H     4.46702    9.63284   -9.77204
       O     5.28828   10.14255   -9.89034
      H1     5.00300   11.08955   -9.76509
       H     0.18493   16.00690   -9.78576
       O     0.34868   16.82470   -9.28361
      H1    -0.29734   17.37873   -9.79890
       H     5.33376   14.38425   -3.55853
       O     5.85476   14.72079   -2.82377
      H1     6.76846   14.30164   -2.79293
       H     0.30312   14.11846  -10.14940
       O     0.01970   14.50981  -11.05393
      H1    -0.88515   14.10303  -11.09668
       H     6.04262   13.37151  -17.06496
       O     6.31041   13.19152  -16.19383
      H1     6.65924   14.05662  -15.94962
       H    -0.12194   16.59165  -14.23053
       O     0.65140   17.11785  -14.40105
      H1     0.31034   18.03027  -14.11082
       H    11.33546   12.59430  -11.94063
       O    12.31067   12.55613  -12.04153
      H1    12.53640   13.49660  -12.08327
       H    10.55577   17.63673   -5.62140
       O    11.18274   18.32781   -5.65194
      H1    11.49476   18.45129   -4.79174
       H     8.31280   16.02464  -10.27290
       O     7.47310   16.23027   -9.82083
      H1     7.03389   16.92704  -10.33321
       H    13.09214   16.10265  -11.90692
       O    12.45046   15.50434  -12.21122
      H1    12.46752   15.61784  -13.19033
       H    -1.29799   17.61218  -11.70026
       O    -0.92925   18.34072  -11.25080
      H1    -1.62662   18.96880  -10.97284
       H     9.65839   16.89524  -12.49795
       O     9.97933   16.53749  -11.65893
      H1    10.86930   16.26274  -11.82964
       H     3.94084   17.56507  -17.03623
       O     3.12727   17.23038  -17.45290
      H1     3.40535   17.36860  -18.38430
       H     5.14110   18.87577  -10.10912
       O     5.46543   18.85106   -9.21966
      H1     6.12872   19.57504   -9.23043
       H    10.36582   11.65724   -7.27846
       O     9.65328   11.60305   -6.56682
      H1     8.99294   11.16276   -7.15232
       H     9.04683   16.32545  -14.74262
       O     8.72286   17.00288  -14.07306
      H1     7.78240   16.82661  -14.02411
       H    13.17980   14.60003   -5.81157
       O    13.87622   15.17400   -6.08566
      H1    13.44047   15.94915   -6.36609
       H     8.32947   17.46192   -8.81182
       O     9.09411   17.89852   -8.37043
      H1     8.85638   18.78865   -8.62169
       H    -0.72556   18.49188   -2.35302
       O    -0.49189   19.27047   -1.87752
      H1     0.09856   19.81050   -2.39296
       H    12.23118   16.71093   -8.11610
       O    13.06179   17.23809   -8.28188
      H1    12.74314   17.99160   -8.83603
       H     5.32395   15.03009  -14.00304
       O     5.12927   14.13374  -13.66664
      H1     4.39545   14.27497  -13.07289
       H     0.35906   18.97829   -4.84652
       O    -0.13965   19.80404   -4.88947
      H1    -1.08720   19.60110   -4.88226
       H     5.56985   13.26738   -9.16831
       O     5.25162   12.86573   -9.97883
      H1     5.83627   13.41229  -10.63179
       H     8.66631   15.63824  -17.15300
       O     8.63136   15.39001  -16.21865
      H1     9.11120   14.49747  -16.15594
       H     3.40235   13.21776   -3.43909
       O     3.92570   13.48924   -4.25914
      H1     3.34611   14.18398   -4.57281
       H     5.63351   17.11221  -13.01311
       O     5.89527   17.05324  -13.93306
      H1     5.19894   17.68217  -14.29273
       H     0.27736   16.09856   -7.30044
       O     0.00947   15.45117   -6.65916
      H1    -0.68908   15.03820   -7.19501
       H     4.89018   11.99224   -6.89238
       O     5.29938   11.11998   -6.86500
      H1     4.59226   10.51967   -6.51013
       H     5.49168   17.41444   -8.21245
       O     5.41795   16.46320   -8.00389
      H1     6.12201   16.10729   -8.50695
       H     4.63749   18.32901   -2.92705
       O     3.95421   18.94369   -3.25022
      H1     4.04240   19.66477   -2.61208
       H     2.57814   16.68637   -8.75017
       O     2.95824   15.87206   -8.36117
      H1     3.90551   16.11437   -8.35281
       H     8.32262   15.53184   -3.82573
       O     9.12217   16.02195   -4.04856
      H1     9.69343   15.70307   -3.34420
       H    10.68229   18.20452  -16.09807
       O    11.42897   17.60677  -16.19167
      H1    12.15845   18.20570  -16.03357
       H    14.53904   17.32853  -12.03408
       O    13.78787   17.78957  -11.52350
      H1    14.11077   17.72465  -10.59141
       H     6.43081   17.81222   -3.23827
       O     6.01059   17.50888   -2.39311
      H1     5.79852   16.61904   -2.64373
       H     8.93063   18.88479   -1.55796
       O     8.96755   19.19184   -2.45734
      H1     9.67107   19.89453   -2.37118

