180
frame 11 | Written by MDAnalysis XYZWriter (release 2.4.3)
       H   -16.18448    1.26359   10.94270
       O   -16.31893    2.17913   10.72594
      H1   -15.42515    2.54508   10.82103
       H   -13.32384   -2.92301   16.03213
       O   -13.94149   -2.57203   15.33014
      H1   -13.30096   -2.01090   14.81447
       H   -10.11771   -2.35958    7.05437
       O   -10.70436   -3.08153    7.32252
      H1   -10.95743   -2.62523    8.09656
       H   -17.97349    0.66999   14.17838
       O   -17.50074    0.55165   15.06130
      H1   -16.57811    0.80047   14.86103
       H   -12.05808    4.30922   14.41599
       O   -11.08718    4.44288   14.25098
      H1   -11.04427    5.39929   14.42356
       H   -13.08713  -11.13304   12.90189
       O   -13.61951  -10.49090   12.36466
      H1   -14.04490   -9.91213   13.00554
       H    -9.93489    1.64704   16.75203
       O    -9.86022    2.56821   16.93669
      H1    -9.26416    2.57882   17.72760
       H   -12.47122   -1.07530    9.84608
       O   -12.68706   -0.11791    9.79855
      H1   -13.62726   -0.20492    9.68500
       H   -11.74078   -4.15089   16.88151
       O   -12.15626   -3.36924   17.27334
      H1   -12.85937   -3.74718   17.91587
       H   -13.92439    3.72412   15.48981
       O   -14.43007    4.45354   15.17056
      H1   -14.37781    5.13992   15.85738
       H   -19.16800    4.12736   15.76460
       O   -18.22794    4.00922   15.67874
      H1   -17.90271    4.91147   15.62581
       H    -9.83949   -2.16384   19.30447
       O   -10.55559   -1.57342   19.02539
      H1   -11.19568   -2.19575   18.66541
       H    -8.50260    3.11498   15.93692
       O    -7.71887    3.42492   15.44232
      H1    -7.02842    2.78389   15.62089
       H   -11.32033    2.57066   11.35310
       O   -10.85241    3.28617   10.90761
      H1   -11.31530    3.37232   10.07513
       H   -12.14159    0.17739   18.25846
       O   -12.74130    0.88422   18.63483
      H1   -12.34345    0.99352   19.46298
       H   -11.19092   -0.14694   14.08633
       O   -11.15369   -1.06636   14.43995
      H1   -10.56157   -1.48804   13.83409
       H   -18.35368    1.66871   12.27882
       O   -18.83538    0.86881   12.56722
      H1   -18.85489    0.36418   11.81341
       H    -7.68603   -7.48511   16.24645
       O    -8.46474   -6.89819   16.18816
      H1    -8.89275   -7.03708   17.00331
       H   -18.55041   -6.96518   10.84471
       O   -18.35672   -6.11735   11.26804
      H1   -17.83667   -6.41378   12.01966
       H   -12.68629   -6.45230   10.44828
       O   -12.28807   -7.20461   10.00894
      H1   -13.10785   -7.68424    9.90643
       H    -8.39451   -2.22273   12.55859
       O    -9.29313   -2.49531   12.81326
      H1    -9.06927   -3.28496   13.31760
       H   -18.73382    2.08509   17.92914
       O   -19.50805    1.47284   17.97258
      H1   -19.49189    0.83269   17.23373
       H   -16.98092    3.65862   12.55400
       O   -17.85148    3.44595   12.89497
      H1   -17.91295    3.79683   13.83362
       H   -17.56470   -5.17217   14.25975
       O   -16.88270   -4.65066   13.81036
      H1   -16.92314   -3.83118   14.30295
       H   -17.12555   -1.35432   15.08334
       O   -16.66879   -2.18439   14.96125
      H1   -15.94024   -2.12651   15.57545
       H   -14.34526   -9.74367   18.52390
       O   -14.17325  -10.64581   18.28415
      H1   -15.06827  -10.83201   18.05365
       H   -14.81717   -4.50594   19.20470
       O   -14.37357   -4.43164   18.34182
      H1   -14.95493   -5.05476   17.79537
       H    -7.01744   -5.18496   12.62273
       O    -6.37740   -5.26138   11.94080
      H1    -6.41257   -6.14704   11.62735
       H   -17.86118   -7.62843   14.96678
       O   -17.78501   -7.65133   14.03009
      H1   -16.94444   -8.00786   13.79329
       H   -12.66928   -6.99457   18.43474
       O   -11.87551   -6.56902   18.02096
      H1   -12.06076   -6.97233   17.17818
       H    -5.90362   -2.64100   15.03614
       O    -6.09086   -3.13082   15.83945
      H1    -5.82920   -2.46354   16.51819
       H   -13.51322    3.55683   10.17884
       O   -13.97123    3.35175   11.02865
      H1   -14.47667    4.16910   11.15050
       H   -10.61571   -7.61688   13.52164
       O   -10.47409   -6.86866   14.16198
      H1   -10.00485   -7.28908   14.92791
       H   -10.31914   -0.75435   17.12021
       O   -10.28593   -0.02743   16.53606
      H1   -10.65535   -0.42961   15.69754
       H   -15.33838   -5.79749   13.98212
       O   -14.62722   -6.36374   13.69852
      H1   -14.35113   -6.77988   14.49715
       H    -7.83488   -4.00701   10.36799
       O    -8.35564   -3.79795    9.57414
      H1    -8.90221   -4.61055    9.52678
       H   -14.84436    6.19480   12.75797
       O   -15.33471    5.33815   12.82717
      H1   -15.09844    5.05108   13.73594
       H   -12.15814   -7.52191   14.84641
       O   -12.79390   -7.66996   15.49719
      H1   -12.98776   -8.60444   15.59731
       H   -11.48906   -8.13039   11.23479
       O   -11.19872   -8.64632   12.08335
      H1   -11.90132   -9.36764   12.01524
       H   -15.98773   -3.25253   11.62728
       O   -16.42100   -3.65767   10.88877
      H1   -16.90728   -4.37583   11.26564
       H    -7.45697   -0.26399   17.44958
       O    -6.81113   -0.70370   18.00974
      H1    -5.98182   -0.55244   17.52130
       H   -10.12449   -3.13421    9.88038
       O   -10.79522   -2.58564   10.23644
      H1   -10.44007   -2.46192   11.09432
       H   -18.59479   -1.64212   10.88432
       O   -18.33485   -0.92265   10.27354
      H1   -17.36144   -0.85860   10.32222
       H   -15.46524   -1.65338   10.18430
       O   -15.54926   -0.64380   10.08077
      H1   -15.80401   -0.59063    9.14019
       H    -9.92949   -0.43761   10.68846
       O    -9.23029    0.21433   10.82541
      H1    -9.52641    0.60299   11.65816
       H   -18.07324   -8.09872   18.65169
       O   -17.45171   -7.60436   19.19946
      H1   -18.05063   -7.10076   19.77341
       H   -16.60542   -1.91319   17.96231
       O   -15.74066   -2.06688   18.39666
      H1   -15.51089   -3.00996   18.16279
       H   -14.50663   -2.44901   12.92246
       O   -15.23486   -1.88208   12.66589
      H1   -15.69176   -1.73533   13.52528
       H   -12.82479    0.98243   11.86592
       O   -12.11116    1.39817   12.37777
      H1   -12.60912    2.21022   12.60672
       H   -12.79521   -4.25076   11.52485
       O   -12.94914   -4.67556   10.65370
      H1   -12.06074   -4.52434   10.21259
       H   -12.58450    3.05792   18.56653
       O   -12.66196    3.78775   19.11177
      H1   -12.77376    3.41481   20.03032
       H   -14.02502   -4.75505    9.40724
       O   -14.75381   -4.78987    8.72115
      H1   -15.48392   -4.37273    9.18722
       H   -13.27830   -3.68666   14.21518
       O   -13.24026   -3.99320   13.30288
      H1   -13.47585   -4.93048   13.50370
       H   -16.38997   -6.69197   17.58434
       O   -15.65371   -6.31177   17.10454
      H1   -14.96107   -6.97940   17.30631
       H   -16.57991    3.27432   18.34225
       O   -17.55790    3.39530   18.24208
      H1   -17.59223    3.79138   17.33150
       H    -9.04196   -5.51586   13.88114
       O    -8.33276   -4.84987   13.99081
      H1    -7.79038   -5.22118   14.68670
       H    -8.42823   -4.65000   17.80618
       O    -8.47611   -4.84755   18.76617
      H1    -8.42029   -5.81389   18.71720
       H   -19.90420   -4.19686   13.87531
       O   -19.54692   -3.34170   14.22082
      H1   -18.58567   -3.46915   14.05122
       H   -12.95065    1.68018   16.99657
       O   -12.77458    2.23445   16.22153
      H1   -11.87692    2.61232   16.45404
       H   -14.99165   -8.07486   12.91355
       O   -15.58699   -8.82901   12.92027
      H1   -15.56131   -8.98500   11.94705

