180
frame 10 | Written by MDAnalysis XYZWriter (release 2.4.3)
       H     4.41513    7.86333  -14.46549
       O     4.53308    7.44186  -13.57816
      H1     4.79579    8.23125  -13.11079
       H     2.39536    3.69695   -9.04010
       O     1.99923    4.53133   -9.22765
      H1     1.03034    4.37711   -9.10285
       H     2.84198   10.65533  -12.45976
       O     3.74989   10.30449  -12.54538
      H1     4.15280   10.41815  -11.66468
       H    -2.05116    0.95562  -12.42699
       O    -2.38224    0.08641  -12.17320
      H1    -3.32872    0.26304  -12.08772
       H     4.92679    0.55199   -5.19216
       O     5.93781    0.36028   -5.17607
      H1     5.88494   -0.55298   -4.86078
       H     5.76186    3.04905   -6.57076
       O     6.49704    2.44569   -6.91432
      H1     6.29750    1.74080   -6.30381
       H     5.11581    8.50905   -6.16977
       O     4.26374    8.67342   -5.67848
      H1     3.58420    8.67722   -6.38220
       H     4.38075    2.74950   -8.17663
       O     4.08754    2.52677   -9.08203
      H1     3.98579    1.56392   -9.07206
       H    -3.32199    3.77593  -13.02614
       O    -3.72580    3.58311  -13.90419
      H1    -4.64100    4.02553  -13.79856
       H    -0.97150    4.61211   -4.42114
       O    -0.04171    4.23205   -4.51883
      H1     0.55925    4.93213   -4.17839
       H    -3.56798    6.69296  -12.99502
       O    -3.43343    6.86970  -12.02104
      H1    -3.64224    7.86061  -12.05745
       H    -0.02582    8.08292   -8.75406
       O    -0.25080    7.51818   -8.00757
      H1    -0.53805    8.16638   -7.31715
       H    -3.35300    4.77681   -3.95071
       O    -2.67220    5.38121   -4.25127
      H1    -3.02709    5.61721   -5.08578
       H     3.95593    2.76502  -11.45325
       O     4.72582    2.63394  -12.07554
      H1     4.92870    3.52361  -12.27776
       H     3.17597   -0.22475  -11.66618
       O     3.15419   -0.56665  -12.55447
      H1     4.10036   -0.42584  -12.76665
       H    -1.11486    3.65525  -11.08487
       O    -0.34750    3.25337  -10.59969
      H1     0.35559    3.28398  -11.23290
       H     0.76722    6.44677   -3.07396
       O     1.60828    6.11038   -3.42411
      H1     1.90522    5.50372   -2.71530
       H     1.38825    8.67457  -10.50443
       O     0.45975    8.94675  -10.47341
      H1     0.02786    8.27692  -11.03170
       H    -1.97291    2.12578   -6.78842
       O    -2.65907    2.44126   -7.39978
      H1    -2.19953    2.10585   -8.16630
       H     1.38962    0.84417  -10.84109
       O     1.93632    1.60590  -10.93959
      H1     1.56344    1.97264  -11.71975
       H    -1.67700    0.55374  -10.60248
       O    -1.30705    0.85350   -9.75324
      H1    -1.21611    1.76276   -9.99342
       H     7.34994    7.02788   -7.83345
       O     7.87053    6.64874   -8.53974
      H1     7.26146    6.07332   -8.93139
       H     0.86703   -1.10556   -8.26136
       O     0.88836   -0.15938   -8.55612
      H1     0.03690   -0.08147   -9.08728
       H     2.82324   -1.81568   -6.69003
       O     3.45722   -1.66631   -7.40130
      H1     4.23874   -2.18439   -7.11178
       H     0.79827   10.42530  -11.71689
       O     0.98222   11.06551  -12.39083
      H1     0.76384   11.89867  -11.93645
       H     1.91169    1.53909  -14.95783
       O     1.46444    0.66206  -14.73279
      H1     2.03867    0.33091  -13.97200
       H     7.68880    4.10766   -5.47867
       O     8.12952    4.93486   -5.32326
      H1     8.90334    4.73456   -4.77845
       H     3.93548    5.47270  -16.28520
       O     3.17646    5.76113  -15.77847
      H1     3.50270    6.31785  -15.07208
       H     0.28163   10.51243   -9.59319
       O     0.37862   10.95859   -8.71951
      H1     0.12737   11.90479   -8.94591
       H     4.69097    7.22546   -4.56736
       O     4.82950    6.58905   -3.79487
      H1     5.75374    6.60547   -3.56190
       H     2.54864    0.33713   -5.39661
       O     3.24005    0.96007   -5.06294
      H1     3.10766    1.71994   -5.70974
       H     3.99143    9.78189   -9.51023
       O     4.64507   10.43252   -9.89447
      H1     4.39207   11.30705   -9.48104
       H     1.68655    2.92961  -16.39116
       O     2.30260    3.07463  -15.65977
      H1     2.45522    4.02171  -15.76673
       H    -1.20594   -1.79089   -9.97986
       O    -1.66239   -1.73275   -9.10978
      H1    -1.80064   -0.80544   -9.09968
       H     6.90013    3.90601  -10.32302
       O     6.89400    4.83753  -10.53711
      H1     7.80151    5.07416  -10.73751
       H     4.41987    2.05185  -13.69535
       O     4.57717    1.92559  -14.62616
      H1     3.91594    2.52889  -15.05511
       H     4.34138    4.36838   -5.80606
       O     4.52018    4.31364   -6.75442
      H1     4.35425    5.20806   -7.13071
       H     3.44965    7.28740   -9.95990
       O     3.15063    7.99779  -10.53520
      H1     3.13797    7.46892  -11.35544
       H     3.04045    3.92171   -2.64238
       O     2.59551    4.12345   -1.82323
      H1     1.85266    3.42742   -1.66558
       H     0.57144    2.40097   -6.41662
       O     0.09054    1.59221   -6.64367
      H1     0.59251    1.24318   -7.41040
       H     2.37620    4.30552   -6.69947
       O     1.86716    3.64764   -6.19981
      H1     1.07036    4.13740   -5.90019
       H     7.43842    8.52693   -5.96681
       O     6.74098    8.43522   -6.69133
      H1     6.86271    9.19748   -7.29323
       H     2.09099    6.54719   -5.26368
       O     2.02094    6.55748   -6.22973
      H1     1.11160    6.52755   -6.40085
       H     0.47480    5.44339  -16.47692
       O     0.00628    5.57667  -15.60909
      H1     0.38104    6.48939  -15.38486
       H     0.78201   -1.50643   -5.83061
       O     1.02013   -0.67713   -5.51565
      H1     0.53264    0.00420   -6.01968
       H     5.46829    5.90281  -13.27284
       O     5.77967    5.00225  -13.15206
      H1     6.38351    5.09140  -12.43374
       H    -2.04632    7.25579   -8.26230
       O    -2.93018    7.28231   -7.85527
      H1    -3.40598    7.98168   -8.28451
       H    -3.19966    4.90906  -11.41370
       O    -2.75829    4.07758  -11.47182
      H1    -3.45749    3.48293  -11.07439
       H    -3.52442    4.29937   -7.57976
       O    -4.25578    4.87984   -7.29981
      H1    -3.92166    5.66684   -7.65463
       H     0.46734    0.56807   -3.99526
       O     0.04027    0.92383   -3.21246
      H1    -0.20956    1.86075   -3.51545
       H     4.60181    4.88871   -4.05551
       O     4.19625    3.98614   -4.13297
      H1     4.73294    3.47675   -3.54162
       H    -0.17480    6.24240  -12.65651
       O    -0.54535    7.11811  -12.38049
      H1    -1.44687    6.93763  -12.27858
       H     5.33760   -1.28341   -9.56834
       O     4.85763   -0.47594   -9.33255
      H1     4.45266   -0.82933   -8.56284
       H     1.19967    3.86951  -14.13732
       O     0.89292    3.85315  -13.20133
      H1     0.10769    3.33955  -13.42271
       H    -3.47902    0.94829   -7.61534
       O    -3.77489    0.16042   -8.20202
      H1    -4.50132   -0.23297   -7.71967
       H     6.52516    2.19401   -9.70786
       O     6.93332    2.04474  -10.58127
      H1     6.21518    2.12822  -11.20574
       H    -1.78477    2.33056  -14.22257
       O    -1.03445    1.93509  -13.73709
      H1    -0.60878    1.43486  -14.49721
       H     1.20430    8.78563   -6.98659
       O     1.97976    9.37262   -7.16837
      H1     1.48288   10.04928   -7.67983
       H    -1.78740    8.46226   -5.27354
       O    -0.87797    8.47266   -5.56935
      H1    -0.48568    9.26351   -5.16072
       H     3.06428    6.61726   -7.54585
       O     3.58727    6.49922   -8.35453
      H1     3.06178    5.82621   -8.77956

