180
frame 0 | Written by MDAnalysis XYZWriter (release 2.4.3)
       H    -9.33150    7.77100  -12.40631
       O    -8.74491    7.58893  -13.22483
      H1    -7.95544    8.18700  -13.18488
       H   -13.66772   13.23068  -18.26744
       O   -13.93545   12.28448  -18.45386
      H1   -13.16092   11.98115  -18.96341
       H   -12.04767    9.45324  -14.85044
       O   -12.86089    9.62710  -14.33936
      H1   -13.42519    8.97877  -14.77971
       H   -19.16216   17.02898  -16.76556
       O   -18.22096   17.09293  -16.39354
      H1   -18.34032   17.45148  -15.48407
       H   -16.85426   16.70142  -17.53383
       O   -16.39067   16.22605  -18.25431
      H1   -15.51706   16.60968  -18.15242
       H    -5.29360   16.60209  -17.95610
       O    -5.78925   15.97455  -18.59870
      H1    -6.64082   16.34986  -18.34808
       H   -18.24068   14.26639  -10.46016
       O   -18.60857   14.39976   -9.56030
      H1   -18.62119   15.35569   -9.48673
       H   -10.33603   18.16305  -18.45438
       O   -10.39392   19.02802  -18.89284
      H1   -11.30689   18.96291  -19.25521
       H    -8.31832   13.24396  -14.16604
       O    -8.53619   12.32181  -14.37791
      H1    -9.52360   12.38753  -14.36284
       H   -16.39684   14.89163  -14.66657
       O   -16.46099   15.38725  -13.80417
      H1   -16.82314   14.69871  -13.21855
       H   -13.04118    9.43038  -12.27799
       O   -12.85518    9.03725  -11.44792
      H1   -12.59897    9.83858  -10.92188
       H   -16.64183   16.87607   -9.80749
       O   -15.67179   17.05053   -9.79699
      H1   -15.54234   17.31679  -10.73664
       H   -14.71651   16.38535  -13.05145
       O   -14.33474   17.04041  -12.49006
      H1   -13.92907   17.65426  -13.13789
       H   -16.63197    6.21115  -14.58684
       O   -17.17249    7.02124  -14.80398
      H1   -18.05148    6.65424  -14.83049
       H   -10.93351    7.73047  -15.70112
       O   -10.66261    8.61074  -15.93461
      H1   -11.45232    8.92064  -16.33121
       H   -17.53973    8.22105  -17.56781
       O   -17.60577    7.23889  -17.33017
      H1   -17.21152    7.15484  -16.39448
       H    -4.81483    9.84341  -17.74710
       O    -5.08568   10.67961  -17.36209
      H1    -6.02052   10.46787  -17.08337
       H   -12.80818   18.27681  -15.40088
       O   -13.25311   18.17880  -16.26679
      H1   -12.49887   17.94567  -16.84044
       H   -12.62243   19.83739  -13.75921
       O   -12.43217   18.85438  -13.74906
      H1   -11.45851   18.74363  -13.58822
       H    -9.16182    8.40654  -16.40581
       O    -8.25897    8.23530  -16.69230
      H1    -7.94169    7.63358  -15.98452
       H    -8.06625   10.14749  -16.27784
       O    -7.78412   11.05821  -16.59962
      H1    -8.02747   11.60931  -15.78686
       H   -12.51126    9.48665  -19.21909
       O   -12.08577    9.64024  -18.35939
      H1   -11.19722    9.83804  -18.63812
       H   -15.10633   11.97348  -14.98883
       O   -15.90002   11.82448  -14.39102
      H1   -15.55556   12.01413  -13.50444
       H   -17.13938   12.78515  -17.52544
       O   -17.31093   12.17158  -18.21679
      H1   -16.40637   12.04515  -18.60588
       H   -18.93394   16.84046  -13.39022
       O   -18.06243   17.34890  -13.37853
      H1   -17.52897   16.53190  -13.45481
       H   -10.42941   14.28519  -10.75320
       O   -11.06435   13.81937  -10.22904
      H1   -11.19872   14.57381   -9.59285
       H    -9.45065   16.25894  -11.72339
       O    -9.39144   15.29948  -11.58145
      H1    -8.87648   15.18459  -10.75038
       H   -13.56400   15.50860  -19.06174
       O   -13.39454   15.01548  -18.27925
      H1   -12.58659   15.39011  -17.87499
       H    -8.37298   19.54305  -15.88773
       O    -7.52008   19.46932  -15.34509
      H1    -7.55163   18.59298  -14.96029
       H    -6.41210    7.54726  -18.93158
       O    -7.28824    7.11786  -18.94515
      H1    -7.67335    7.41267  -18.08617
       H    -7.72905   15.15031  -13.02673
       O    -7.43629   14.46268  -13.67861
      H1    -7.22168   14.92735  -14.49826
       H   -14.86598   18.29235  -15.56076
       O   -15.52677   18.42029  -14.83623
      H1   -15.93795   17.52703  -14.80697
       H   -10.41295   15.81064  -18.31767
       O   -10.73690   16.45631  -17.69205
      H1    -9.93473   16.61127  -17.15268
       H    -7.37600   18.03319  -17.22972
       O    -7.95513   17.34079  -17.59095
      H1    -7.94884   16.60729  -16.88933
       H   -12.93550    3.92649  -18.75851
       O   -13.30889    4.84188  -18.71125
      H1   -13.69385    4.83108  -17.86007
       H   -13.54424    7.40583  -12.27589
       O   -13.76697    6.70513  -12.90242
      H1   -12.91707    6.58649  -13.36751
       H   -11.76926   15.01694  -12.30026
       O   -12.27434   15.24697  -13.13154
      H1   -12.94156   15.83894  -12.79219
       H   -12.11282   12.10356  -14.31287
       O   -11.27265   12.52655  -13.99721
      H1   -11.36400   13.50356  -14.08520
       H   -13.72502   10.88521  -15.61434
       O   -13.72723   11.77873  -15.91269
      H1   -13.79844   11.58085  -16.87186
       H   -12.73670   16.70917   -9.81375
       O   -12.43454   17.31975  -10.50689
      H1   -13.26078   17.38419  -11.06120
       H    -7.01921   14.10451  -16.73919
       O    -7.81946   14.72033  -16.67973
      H1    -8.33430   14.29705  -17.37453
       H   -11.13947    5.69167  -15.04203
       O   -11.37842    6.39267  -14.43863
      H1   -10.58595    6.64221  -13.93236
       H    -7.43640   11.72769  -12.70872
       O    -7.06454   11.42519  -11.89371
      H1    -6.15262   11.28421  -12.15906
       H    -8.46646   11.98541  -18.02093
       O    -8.34758   12.40365  -18.90444
      H1    -9.31898   12.67950  -19.10642
       H    -9.93524   18.99198  -12.19487
       O    -9.88421   17.99589  -12.03320
      H1   -10.66667   17.92888  -11.48511
       H   -13.82672   11.84439   -9.28898
       O   -13.71941   12.29267  -10.13595
      H1   -12.78889   12.55405  -10.12912
       H   -11.75685   12.79923  -16.47068
       O   -11.23258   12.72510  -17.30118
      H1   -11.34152   13.55719  -17.71510
       H   -18.23912   13.30632  -12.64616
       O   -17.85840   13.96452  -12.03157
      H1   -17.08392   13.49866  -11.66253
       H   -11.87073    5.96117  -17.91094
       O   -11.02244    6.23339  -17.46556
      H1   -10.61352    6.72808  -18.13565
       H   -18.24283    9.99523  -11.00697
       O   -17.41881   10.38473  -10.68980
      H1   -17.65434   10.98735   -9.94608
       H    -6.84908   17.24954  -12.96093
       O    -7.46421   17.13284  -13.74737
      H1    -8.26080   17.59575  -13.46280
       H   -16.92455   10.18321  -17.86764
       O   -16.10134    9.66285  -17.84921
      H1   -15.98049    9.53877  -16.84747
       H   -16.01909   11.44359  -11.36224
       O   -15.69736   12.33978  -11.72804
      H1   -14.87698   12.44149  -11.23030
       H   -19.61409   12.05272  -13.00026
       O   -19.15259   12.03661  -13.86667
      H1   -18.50245   11.34773  -13.69238
       H    -5.50431   14.30452  -17.90146
       O    -5.41438   13.65077  -17.18592
      H1    -5.48284   12.82334  -17.67056
       H   -15.99062   10.14064  -14.72218
       O   -15.63997    9.30124  -15.11351
      H1   -16.27883    8.68354  -14.80460
       H   -15.96978    9.69190  -10.10406
       O   -15.22908    9.21408   -9.62939
      H1   -14.58857    9.12209  -10.34680
       H   -16.91149    6.13037  -18.45462
       O   -16.61147    5.63669  -19.25023
      H1   -17.23801    5.92284  -19.94179
       H   -17.67342   14.31039  -16.15081
       O   -16.76270   14.18771  -16.48309
      H1   -16.85950   14.87091  -17.23263
       H   -19.58218   10.46122  -17.54924
       O   -19.12459   10.24048  -18.36958
      H1   -18.67841   11.13506  -18.52308

