180
frame 75 | Written by MDAnalysis XYZWriter (release 2.4.3)
       H     9.06775    7.45451   14.76458
       O     9.07946    6.84740   13.93305
      H1     9.76906    6.22275   14.18342
       H     9.31603    6.28938   11.17450
       O    10.27608    6.33537   11.16225
      H1    10.49967    7.28572   11.01719
       H    10.38230    1.09560    6.55534
       O    10.15079    1.99970    6.85002
      H1    10.19856    2.50716    6.03857
       H    15.38070   -1.32782   14.42359
       O    15.04881   -0.93138   13.60670
      H1    14.91669   -1.74794   13.05289
       H    18.51055    4.50788    8.38315
       O    19.23436    4.29899    8.96281
      H1    18.75484    4.18406    9.83761
       H    14.82994    9.22129   14.11282
       O    14.06103    9.17695   14.69551
      H1    13.29630    9.59523   14.24658
       H    10.04843   -2.15525   14.26771
       O    10.71610   -2.16454   13.51020
      H1    10.32775   -1.44105   13.00413
       H    12.39601    5.18966    7.11256
       O    11.95439    4.34729    7.25362
      H1    11.40920    4.67705    7.98319
       H    13.66046    1.61633   12.02085
       O    13.10760    1.23324   12.73942
      H1    13.71606    0.54564   13.08399
       H     8.28096    9.49998    9.56091
       O     9.06673    9.01932    9.25971
      H1     9.66643    9.31000    9.98546
       H     8.32789    8.56142    6.69161
       O     9.03493    7.94684    6.91102
      H1     9.25383    8.18880    7.81203
       H     7.38101    5.37560   10.66024
       O     7.70967    6.16068   11.12719
      H1     7.57482    5.89131   11.99280
       H     9.33740    1.32307   14.59339
       O     9.42607    2.00162   13.84420
      H1     8.52196    2.36544   13.88603
       H     7.19410    5.35043    7.25345
       O     6.84285    5.34752    6.35988
      H1     6.52833    6.25802    6.27453
       H    13.07394    2.55623   14.37099
       O    12.44098    3.14764   14.84880
      H1    12.93192    3.23461   15.69205
       H    13.25412    3.33008   10.92446
       O    13.07105    4.27141   11.13897
      H1    12.18707    4.22396   11.56875
       H    10.52975    6.01031   17.47295
       O    11.13038    6.77070   17.19009
      H1    10.50519    7.43050   17.09750
       H    10.70403    8.50614   13.62888
       O    10.73168    9.51502   13.77321
      H1     9.82368    9.77602   13.69996
       H     8.28862   -0.38525   16.03864
       O     8.33505    0.55021   16.14562
      H1     7.87231    0.54840   17.03353
       H    15.06252    9.40931    9.28213
       O    15.60498    8.62508    9.51262
      H1    15.53265    7.92526    8.80900
       H    11.11706    2.23144   16.01082
       O    10.68467    2.03372   16.85031
      H1     9.82443    1.64838   16.51650
       H     6.27320    0.06410   11.13221
       O     6.97092    0.20224   11.77621
      H1     7.18048    1.11567   11.37983
       H    14.09583    8.49376   11.08178
       O    13.26510    8.10847   11.36374
      H1    13.46101    7.45296   12.09847
       H     9.93932    2.79595   12.22472
       O     9.81532    2.89803   11.25159
      H1    10.06706    1.96985   11.09992
       H    12.94611    6.00591   13.49806
       O    13.82249    5.98847   13.04204
      H1    13.67461    5.21095   12.41574
       H    19.29962    2.93120   14.72857
       O    18.50372    3.28239   14.22038
      H1    18.91473    3.40004   13.35406
       H     9.21612    4.50427   17.64499
       O    10.01603    4.45315   18.20061
      H1    10.38944    3.61492   17.96736
       H     9.30048    6.11777    8.09971
       O     9.70686    5.31993    8.53831
      H1     9.80800    5.77237    9.38828
       H    16.94485   -0.95402   12.71732
       O    17.94506   -1.00687   12.76043
      H1    18.17544   -1.43591   11.91896
       H    12.31314    7.19863    5.08100
       O    12.79286    6.37126    4.93468
      H1    12.15664    5.72678    4.72568
       H    11.68989    0.57883   11.53499
       O    10.93808    0.25115   11.04663
      H1    11.38854   -0.01505   10.22595
       H     6.76690    0.85816   14.49625
       O     5.88002    1.00527   14.04402
      H1     6.07698    0.68214   13.17154
       H    17.32589    3.46394   10.85027
       O    16.78872    4.18866   10.59902
      H1    16.82712    4.72223   11.44532
       H     8.12626    5.15698    8.96411
       O     7.18625    4.85591    9.07642
      H1     7.32309    3.90137    9.08606
       H    14.75820    7.26552    7.20662
       O    15.02879    6.58613    7.86530
      H1    14.20403    6.46604    8.39976
       H     8.34725   -0.81382    9.39785
       O     9.03804   -1.42311    9.81478
      H1     9.64085   -0.80262   10.22830
       H    10.87117    9.84557   12.00365
       O    10.98972    9.73996   11.04644
      H1    11.92575    9.35705   11.17487
       H    16.81165    8.09661   12.84396
       O    16.66372    9.06844   12.93720
      H1    17.38076    9.49449   12.44061
       H    14.00304    5.12892    4.72556
       O    14.81114    4.52930    4.88788
      H1    15.07465    4.87672    5.77744
       H    11.73503    4.94024   14.77351
       O    11.70526    5.89471   14.71871
      H1    11.58785    6.19903   15.64862
       H    14.88975    2.26208   10.04750
       O    13.94653    2.04835   10.09914
      H1    13.68639    2.14650    9.17289
       H    13.81081    1.99163    6.80237
       O    13.17577    1.85110    7.49858
      H1    12.48731    2.53958    7.25585
       H    11.13840   -0.84585    7.80394
       O    11.87672   -0.54960    8.31656
      H1    12.24716    0.19352    7.76552
       H    16.56283    4.26719    8.69325
       O    16.45728    4.20119    7.74923
      H1    15.90581    4.99304    7.60609
       H    14.62526   -0.21538    9.51373
       O    15.11358   -0.98716    9.14623
      H1    14.38965   -1.56360    8.78911
       H    11.78191    0.55215   17.56968
       O    12.10899   -0.32700   17.77551
      H1    12.30021   -0.59923   16.89240
       H     8.11466    2.96226   11.37778
       O     7.10693    2.87358   11.39635
      H1     6.99442    3.34595   12.22559
       H    18.87778    6.48410   15.14486
       O    17.97437    6.13440   15.07945
      H1    18.25006    5.25190   14.72487
       H    12.86469    5.47462    9.96730
       O    12.92725    6.29404    9.35280
      H1    12.93316    7.05854    9.99813
       H    11.21347    3.53537    4.13079
       O    10.82723    4.27682    4.67010
      H1    11.45249    4.18618    5.44330
       H     7.87035    5.62264   13.72819
       O     7.22085    4.86394   13.60341
      H1     6.66419    5.01353   14.41471
       H    12.79165   10.79373    9.21933
       O    13.59937   10.78350    9.70849
      H1    13.53452   11.62542   10.17552
       H    17.40444    8.72381    9.50213
       O    18.36353    8.90650    9.57884
      H1    18.60161    9.17186    8.70374
       H     8.29364    1.90250    7.02001
       O     7.30777    1.64922    7.00678
      H1     6.84848    2.46222    6.81785
       H    12.14085   -3.44995    9.75392
       O    12.70425   -3.22603    8.99869
      H1    12.32096   -2.36156    8.72897
       H    17.02762    6.26670   13.48982
       O    16.51900    6.35042   12.64405
      H1    15.55397    6.16130   13.07143
       H     4.37534    6.77754   10.69217
       O     4.85640    6.77609   11.50036
      H1     5.79171    6.83523   11.13041
       H    12.98623    6.94819   16.77608
       O    13.85340    7.33338   16.93242
      H1    14.04371    7.81726   16.14078
       H    16.77060    2.52806   15.59851
       O    15.89094    2.28694   15.80844
      H1    15.45090    3.10266   16.04213
       H    14.25689    4.09795   17.66125
       O    14.30697    4.31320   16.72659
      H1    14.31518    5.27974   16.92662

