180
frame 5 | Written by MDAnalysis XYZWriter (release 2.4.3)
       H    15.37075    3.94128    3.71008
       O    15.04744    4.52385    4.40887
      H1    14.40396    4.04941    4.88359
       H    16.86390   -0.49958   11.38529
       O    17.43825   -0.21164   10.66541
      H1    17.90020   -1.05670   10.53250
       H    11.73727    4.03036    9.43456
       O    12.11589    3.69063    8.64104
      H1    12.77207    4.45218    8.50791
       H    14.01634   -0.80501   13.67595
       O    14.97816   -0.92794   13.92629
      H1    15.28182   -0.01616   14.07394
       H    15.74235    2.89269   10.72812
       O    16.55338    2.81799   11.31101
      H1    17.14494    2.28777   10.78755
       H    12.22664    1.20750   10.37237
       O    12.31810    0.83417    9.46236
      H1    12.77212    0.00446    9.73627
       H    15.94492    6.63268    6.43364
       O    16.17682    6.80619    5.47476
      H1    15.78749    6.03972    5.09680
       H    13.28095    5.78385   11.09548
       O    14.15324    5.55028   10.74714
      H1    14.42495    4.84262   11.32965
       H     8.20139    1.93436   11.03332
       O     9.14968    2.08098   10.78263
      H1     9.13684    1.44834   10.05978
       H    16.17457    0.01448    9.33760
       O    15.46286   -0.04641    8.62219
      H1    14.79635    0.66553    8.76356
       H    15.42721   -0.31348    4.60804
       O    15.37836   -1.28860    4.34505
      H1    15.67523   -1.40632    3.45880
       H    13.64431    3.00345    9.26124
       O    14.59430    2.95253    9.42253
      H1    14.95065    3.72548    8.93234
       H    15.16224    6.46728   11.89272
       O    15.53357    6.76441   12.74720
      H1    15.89310    5.95735   13.23131
       H    18.67812   -3.31891   14.40680
       O    17.92693   -3.33124   13.82777
      H1    18.24808   -3.81961   13.09568
       H    15.01547    3.47826   16.48521
       O    14.88228    4.46327   16.47802
      H1    13.92754    4.55588   16.33179
       H    18.62136    0.16603    5.91494
       O    19.30142    0.85927    5.80978
      H1    19.86681    0.67285    6.56086
       H    14.84716    9.94684   13.32004
       O    15.41223   10.28025   12.58326
      H1    16.15717    9.76812   12.65113
       H    11.99183   -1.61613   10.97424
       O    12.71926   -1.22379   11.42887
      H1    12.27522   -0.75611   12.16778
       H    14.20054    6.23951   14.20000
       O    13.47251    6.44874   14.77218
      H1    13.72468    7.33591   15.07363
       H    13.90258   -3.84613    9.65305
       O    13.84191   -4.61666   10.26748
      H1    13.82527   -4.18123   11.12077
       H    15.73043   -6.24666   12.97281
       O    16.15559   -5.85812   12.18660
      H1    15.67524   -5.01387   12.12249
       H    18.87002    5.93997   15.13182
       O    17.99192    6.12374   15.54329
      H1    17.45980    5.46111   15.10626
       H    11.08088    5.16358   11.98177
       O    10.91049    4.79269   11.08925
      H1    10.47771    3.93524   11.31863
       H    19.93033    6.80541    4.62839
       O    19.34328    6.46709    5.35609
      H1    18.70255    5.84089    4.90438
       H    12.20073    5.99396    5.29443
       O    12.94463    6.53805    5.54717
      H1    12.53623    7.38807    5.83773
       H    12.88774    6.93209   12.83763
       O    12.13905    6.90774   12.21854
      H1    12.27855    7.79482   11.81250
       H    13.28093   -3.59648   13.53181
       O    13.74819   -3.47918   12.71508
      H1    13.30603   -2.73971   12.30580
       H    19.01707   -0.43453   12.96033
       O    18.49740    0.06586   13.60647
      H1    19.12478    0.78883   13.91939
       H    18.57898    2.75708   15.83312
       O    17.93514    2.19611   16.24892
      H1    18.42078    1.92953   17.04118
       H    12.79649    1.97973   13.05364
       O    12.27119    1.83775   12.31481
      H1    11.58611    1.19600   12.60850
       H    11.87558   -1.29916   14.44925
       O    12.29708   -0.64190   13.88002
      H1    12.74459   -0.02973   14.44954
       H    16.16727   -4.81278    9.47518
       O    16.68592   -4.71597    8.69243
      H1    17.41084   -5.33111    8.80903
       H     9.68446    5.44204    7.86209
       O     9.87880    4.69714    7.20142
      H1    10.63384    4.28090    7.56233
       H    16.17858    1.63671   17.06229
       O    15.23078    1.78215   17.04916
      H1    14.88131    1.29495   17.83390
       H    17.58022    3.10035    7.20427
       O    17.49601    2.85848    6.25297
      H1    18.09903    2.09222    6.12556
       H    15.99652    1.84162   12.98306
       O    15.91756    1.72089   13.93730
      H1    16.84344    1.45237   14.20289
       H    18.33897    3.52654    3.57407
       O    18.08730    4.24059    4.13673
      H1    17.81939    3.84779    4.98010
       H    11.51503    1.05330    6.46389
       O    12.05393    1.86034    6.47683
      H1    11.97650    2.28134    7.36686
       H    18.81557    7.76820   16.28081
       O    18.94454    8.18400   17.14471
      H1    19.91870    8.40576   17.00755
       H    10.84034    0.57640    8.78300
       O     9.87813    0.42968    8.45059
      H1    10.20234   -0.06856    7.64599
       H    15.53351   -4.76329   15.58481
       O    16.17734   -5.24783   14.99504
      H1    16.60764   -4.51596   14.53961
       H    14.36162    6.55491    8.52544
       O    14.13044    5.71622    8.08100
      H1    13.91876    6.04534    7.15062
       H    13.95035   -3.24715   15.37036
       O    14.67107   -2.87261   15.91364
      H1    15.00078   -2.13729   15.32292
       H    12.55741    2.26444   15.80428
       O    13.27394    2.22566   15.20033
      H1    13.91034    1.76720   15.71677
       H    16.69796   -1.31219    5.64050
       O    17.31626   -0.96903    6.30021
      H1    16.72700   -0.72952    7.01080
       H    10.05195    6.19491   10.49086
       O     9.61513    6.84392    9.86752
      H1     8.80928    6.35946    9.68497
       H    17.71773   -3.21530    8.94295
       O    18.47942   -2.60330    8.91949
      H1    18.97441   -2.83769    9.74371
       H    13.75155   -1.62837    5.58231
       O    12.86774   -1.82413    6.00328
      H1    13.22979   -2.20248    6.81257
       H    12.65178    2.01167    5.04663
       O    13.04706    2.23300    4.15176
      H1    12.57941    1.50811    3.63226
       H    16.81157   -2.73532   12.60141
       O    16.35248   -2.63090   11.74064
      H1    15.37589   -2.59211   11.85576
       H    18.33759    7.33847    8.38959
       O    18.56826    7.90798    7.64452
      H1    18.62629    7.27608    6.89760
       H    17.94713    3.46870   13.13820
       O    18.91647    3.38251   13.14341
      H1    19.04011    2.81128   12.39648
       H    18.04959    4.46255    9.28385
       O    18.17334    3.65937    8.73276
      H1    18.53098    3.13644    9.40495
       H    18.44710    6.44671   10.66892
       O    17.80268    6.42784    9.89566
      H1    17.02584    6.82929   10.27089
       H    18.56850    4.36390   18.12232
       O    18.06490    4.52432   18.90030
      H1    18.49243    3.99724   19.61605
       H    18.91906   -3.63908   16.94495
       O    19.19987   -2.86047   16.41863
      H1    20.14092   -3.13468   16.25965
       H    15.97457    3.45063   14.13487
       O    16.15571    4.37844   14.23197
      H1    15.58576    4.45602   15.02763
       H    14.79582    1.93670    4.94905
       O    15.66311    1.57368    4.80257
      H1    16.18506    2.07024    5.44471
       H    15.32340   -3.26877    8.13184
       O    14.57545   -2.76752    8.42990
      H1    14.96185   -1.93723    8.78803
       H    18.53862    7.99064   12.25045
       O    18.32724    8.88613   11.96030
      H1    19.07065    9.18619   11.42651

