180
frame 7 | Written by MDAnalysis XYZWriter (release 2.4.3)
       H     0.28359   14.69245  -12.35174
       O     0.20137   15.62734  -12.23404
      H1     0.24168   15.87183  -13.13033
       H    -8.78157   10.51539  -13.17231
       O    -9.56845   10.92310  -12.78456
      H1    -9.40450   11.87960  -12.82769
       H     4.35667   17.59889  -18.88131
       O     3.91393   17.10944  -19.61786
      H1     2.98909   17.14419  -19.34768
       H    -3.43557   17.76394  -12.45711
       O    -4.12598   18.41248  -12.70730
      H1    -4.00477   18.66665  -13.65749
       H    -4.61823   17.79560   -8.25383
       O    -3.70324   18.00502   -8.53168
      H1    -3.36951   18.43851   -7.70627
       H    -2.66853   14.73769  -15.44552
       O    -2.14872   14.13573  -14.84476
      H1    -2.77716   13.41347  -14.71651
       H    -2.86559    8.39621  -13.71478
       O    -2.41509    8.87051  -12.97946
      H1    -3.21765    9.33327  -12.57393
       H    -9.72584   18.44412  -17.86982
       O    -9.48397   18.93787  -18.69235
      H1   -10.32564   18.98609  -19.16319
       H    -9.64034   13.49178  -15.44176
       O    -9.88561   13.37272  -16.38486
      H1   -10.82955   13.62292  -16.39514
       H    -6.30416   17.72122  -18.03432
       O    -6.21067   17.42345  -17.09738
      H1    -6.54227   18.16970  -16.56006
       H    -4.26388    7.35973  -15.54273
       O    -4.01129    8.16991  -14.99223
      H1    -4.41598    8.88531  -15.54883
       H     1.75148   16.68694  -10.82993
       O     2.59904   17.08804  -10.65411
      H1     2.49533   17.89069  -11.20775
       H    -0.81219   17.65056  -16.79845
       O    -1.14867   17.43396  -15.91960
      H1    -0.33931   17.02942  -15.46957
       H    -3.98109   15.35988  -13.40262
       O    -4.81906   15.08821  -13.05891
      H1    -5.46852   15.70959  -13.49681
       H     1.99582   13.98144  -19.11159
       O     1.46526   14.25578  -18.38271
      H1     1.70844   15.20093  -18.24769
       H    -0.10016   11.47067  -19.72608
       O     0.05871   11.77626  -18.83768
      H1    -0.90318   11.67599  -18.57076
       H    -6.87961   11.32780  -10.68135
       O    -6.26137   12.11404  -10.75042
      H1    -6.72937   12.55815  -11.50263
       H    -5.31748    9.59242  -17.08455
       O    -5.17285   10.53142  -16.82827
      H1    -6.13098   10.74728  -16.83691
       H     2.33469   12.47108  -15.40259
       O     1.37420   12.54882  -15.60763
      H1     1.36112   12.73414  -16.63069
       H    -6.53649   18.18673   -8.06820
       O    -6.44997   17.39025   -8.62432
      H1    -6.52479   17.80713   -9.53168
       H    -7.94954   11.17151  -15.35659
       O    -8.56929   11.03112  -16.12222
      H1    -9.11544   11.81559  -16.06873
       H    -4.28945   12.95696  -18.42697
       O    -5.06992   13.45151  -18.81475
      H1    -5.63504   12.62175  -18.99193
       H     1.26401    9.81231  -10.95722
       O     1.45997   10.33044  -11.74609
      H1     0.93264   11.09783  -11.45037
       H    -1.01341   12.18468  -10.43196
       O    -0.42296   12.06975   -9.64029
      H1    -0.00881   12.91013   -9.58598
       H    -2.75416   16.60498   -9.00522
       O    -2.48194   15.70254   -9.34403
      H1    -3.27164   15.14217   -9.38212
       H    -9.71613   14.68895  -10.93817
       O    -9.01135   14.01600  -10.96714
      H1    -8.25738   14.62687  -10.74621
       H     1.41573   19.57954  -16.63509
       O     1.01887   19.23218  -17.44166
      H1     1.38242   18.31771  -17.38184
       H    -8.31946   19.42480  -14.74433
       O    -7.57784   19.02107  -15.18292
      H1    -7.12381   18.55220  -14.54318
       H    -9.23215   13.64146  -12.99103
       O    -8.95656   13.44801  -13.86292
      H1    -8.09370   13.84535  -13.97105
       H    -9.68551   17.76496  -15.58299
       O   -10.13261   17.32701  -16.31723
      H1    -9.57106   16.62009  -16.59187
       H    -5.94037    8.10365  -13.64576
       O    -6.11546    8.24985  -12.72715
      H1    -5.31936    8.78569  -12.57747
       H    -0.27382   19.19998  -10.00964
       O    -0.07977   19.22577   -9.03378
      H1     0.76958   19.69210   -9.03724
       H    -5.01114   13.12178   -9.67462
       O    -4.18488   13.57818   -9.52656
      H1    -4.33645   13.56603   -8.54002
       H    -0.40399   14.00399  -19.13331
       O    -1.20934   14.38225  -19.53437
      H1    -1.64940   13.62745  -19.86827
       H    -6.60052   15.95082   -9.68787
       O    -6.74996   15.60236  -10.57212
      H1    -5.84669   15.21172  -10.75964
       H    -5.76787   14.55265  -15.49822
       O    -6.56134   14.02454  -15.60036
      H1    -6.87325   14.28877  -16.48356
       H   -11.59385   15.93666  -14.51937
       O   -12.28319   15.55864  -15.03079
      H1   -13.05652   15.67278  -14.45335
       H    -0.65356   13.08342  -12.84531
       O     0.25928   12.98689  -12.87429
      H1     0.55257   13.15619  -13.81095
       H    -1.29000   16.18839  -12.00185
       O    -2.23777   16.48927  -11.86619
      H1    -2.39922   16.30324  -10.92862
       H     0.12965   10.65873  -14.87217
       O    -0.73163   10.25034  -14.97075
      H1    -0.95147    9.97882  -14.08365
       H    -3.02113   11.79371  -11.69545
       O    -2.36632   12.50036  -11.69041
      H1    -2.84820   13.36030  -11.58427
       H    -9.68955   14.92662  -18.19620
       O   -10.35623   15.27696  -18.80099
      H1    -9.63994   15.78228  -19.34509
       H     0.84154   18.54555  -14.22950
       O     1.40381   17.74080  -14.01504
      H1     1.66633   17.80121  -13.12034
       H    -6.33505   12.39600  -14.88854
       O    -6.65232   11.66500  -14.36230
      H1    -5.89240   11.36292  -13.85496
       H    -2.46150   11.27539  -14.98146
       O    -3.33072   11.71952  -14.89024
      H1    -3.86119   11.27452  -15.54713
       H    -8.10741   11.57201  -17.67328
       O    -7.76102   11.67231  -18.53331
      H1    -8.49327   12.10364  -18.97515
       H    -1.62306   18.02745  -11.49485
       O    -0.84473   18.66826  -11.50553
      H1    -1.45461   19.40666  -11.56001
       H   -10.36913   17.98570  -13.60475
       O   -10.05259   17.05640  -13.46770
      H1   -10.24928   16.97665  -12.54213
       H    -4.85706   11.30217  -11.22652
       O    -4.22318   10.56047  -11.37753
      H1    -4.18644   10.10465  -10.49383
       H     1.64487   10.14226  -17.76163
       O     1.07564    9.53562  -17.19256
      H1     0.49424   10.25215  -16.80849
       H     1.68551   16.19526  -16.60965
       O     2.46819   16.62142  -16.95086
      H1     3.00055   16.94851  -16.20197
       H    -6.96805   16.61995  -12.67133
       O    -7.08647   16.49559  -13.64544
      H1    -8.04058   16.41857  -13.70558
       H    -5.47921    8.54005  -19.03487
       O    -4.94392    8.37129  -18.33053
      H1    -4.03641    8.49352  -18.72569
       H    -4.43600   16.37059  -16.44006
       O    -3.66368   15.98500  -15.98074
      H1    -3.07486   16.75745  -16.09318
       H    -2.14733   13.66116  -18.19833
       O    -2.51349   12.95482  -17.64363
      H1    -2.63557   13.44419  -16.76372
       H    -7.00300   15.78376  -17.81997
       O    -7.53022   14.96113  -18.01336
      H1    -6.83948   14.41810  -18.46424
       H    -0.38393   14.55657  -15.15006
       O     0.37107   15.21621  -15.18401
      H1     1.08882   14.60428  -15.36820
       H    -2.51062   17.33912  -19.49312
       O    -2.79046   16.45127  -19.30149
      H1    -2.01311   15.88257  -19.30948
       H    -6.81102   19.57965  -11.28066
       O    -6.47197   18.70448  -10.97063
      H1    -5.66083   18.69903  -11.50221
       H    -9.84971   12.85609  -18.24718
       O   -10.35898   12.24810  -18.87056
      H1   -11.03416   12.80626  -19.29177

