180
frame 6 | Written by MDAnalysis XYZWriter (release 2.4.3)
       H   -11.98316  -18.50719   -7.13316
       O   -11.47571  -19.20290   -7.61774
      H1   -11.45604  -19.90151   -6.91410
       H   -13.51161  -18.83924   -5.83742
       O   -13.51979  -17.87913   -6.14015
      H1   -12.92327  -17.35088   -5.50491
       H   -16.80547  -15.92979    5.77563
       O   -16.82317  -16.60736    5.04459
      H1   -17.42291  -17.22786    5.47390
       H    -7.87819  -14.54887   -2.73782
       O    -6.90944  -14.68123   -2.82258
      H1    -6.71736  -14.21750   -2.02816
       H    -1.56553  -19.04128   -1.41484
       O    -2.03316  -18.25434   -1.01612
      H1    -2.84353  -18.27077   -1.53355
       H    -7.37131  -12.62039    0.52207
       O    -7.15762  -12.89115   -0.44348
      H1    -6.41149  -12.31011   -0.61584
       H    -7.49910  -12.83253    2.94669
       O    -8.02410  -13.60924    2.73983
      H1    -7.43982  -14.31279    3.02664
       H   -12.25267  -14.11018    1.23282
       O   -12.67556  -13.67044    1.97867
      H1   -11.90303  -13.19020    2.33467
       H   -13.26390  -17.67413    5.04045
       O   -13.38441  -17.40608    5.96623
      H1   -13.32524  -16.46540    5.89260
       H   -10.52764  -14.38153    4.52091
       O   -10.02280  -13.52884    4.50039
      H1    -9.33213  -13.73920    3.83823
       H   -11.61933  -14.04774    7.14668
       O   -12.11539  -14.85130    7.23809
      H1   -12.97017  -14.49621    7.53860
       H    -8.22136  -10.30245   -2.70670
       O    -7.64717  -11.04917   -3.02181
      H1    -7.98056  -11.80847   -2.47607
       H   -11.03953  -12.08348   -1.99315
       O   -11.30361  -12.65209   -2.73531
      H1   -11.90456  -13.26276   -2.29969
       H   -10.21847  -14.02239   -2.59992
       O    -9.76343  -14.87683   -2.54604
      H1    -9.82528  -15.11718   -1.60050
       H    -5.39296  -17.47132   -0.04853
       O    -5.44953  -18.08685   -0.81346
      H1    -6.12803  -17.80684   -1.48008
       H    -5.56325  -16.25475    2.77164
       O    -6.27029  -15.96123    3.39605
      H1    -5.85738  -16.21438    4.24788
       H    -3.64019  -19.35751   -2.92850
       O    -3.61654  -18.50655   -3.50100
      H1    -4.46761  -18.15938   -3.14745
       H   -14.41171  -18.64732    3.39141
       O   -13.93329  -19.27981    3.95251
      H1   -14.54707  -19.36537    4.68859
       H    -3.03544  -19.16522    2.62289
       O    -2.94378  -18.20367    2.83222
      H1    -2.03814  -18.00714    2.57181
       H   -14.83243  -14.56439    9.13551
       O   -14.73557  -14.54745    8.18086
      H1   -14.70350  -15.52826    8.01344
       H   -12.14495  -15.77414    4.20704
       O   -11.20290  -15.88431    4.53912
      H1   -11.31564  -15.58428    5.46252
       H   -10.09029  -16.24240   -5.56993
       O   -11.00581  -15.99884   -5.83795
      H1   -11.11920  -15.04385   -5.61874
       H   -10.18856  -14.93005    9.71897
       O   -10.80766  -15.62210    9.44555
      H1   -11.13143  -15.43094    8.55201
       H    -7.30193  -17.06655   -4.05752
       O    -6.59681  -17.26405   -3.37380
      H1    -6.55391  -16.39266   -2.92253
       H    -8.79143  -16.04135   -3.90496
       O    -8.76542  -16.56974   -4.74114
      H1    -8.30892  -15.91016   -5.29887
       H    -6.59010  -19.09144    5.23622
       O    -6.63405  -18.36743    5.82427
      H1    -6.63754  -18.80963    6.68748
       H   -15.16094  -17.37299    8.75268
       O   -15.26418  -17.19636    7.83708
      H1   -14.64385  -17.77631    7.39814
       H   -15.36861  -12.60613   -0.66561
       O   -15.41884  -12.19598   -1.59761
      H1   -16.18864  -12.63201   -1.99965
       H   -18.32108  -18.96427    2.32764
       O   -19.16305  -18.54918    2.22124
      H1   -18.90267  -17.96979    1.45179
       H   -18.36981  -15.11745   -3.24054
       O   -18.40742  -16.08641   -3.35078
      H1   -17.86486  -16.46958   -2.68243
       H   -10.73939  -10.93465    2.29179
       O   -11.09847  -11.46602    3.04571
      H1   -10.47612  -12.15121    3.30382
       H    -4.50038  -15.94410    6.12207
       O    -5.41750  -15.86163    6.28929
      H1    -5.79575  -16.75647    6.28975
       H    -7.68715  -18.18125    8.79884
       O    -7.64533  -19.05101    8.38440
      H1    -7.25876  -19.61818    9.11563
       H   -10.39620  -10.77940   -0.28975
       O   -11.00354  -10.50904   -0.96296
      H1   -10.73575   -9.61337   -1.23693
       H    -9.72729  -16.35973    2.89799
       O    -9.10975  -16.79431    2.31490
      H1    -8.26776  -16.61166    2.65517
       H   -13.56601  -15.16287    2.73799
       O   -13.89652  -15.56833    3.59177
      H1   -14.37605  -14.79330    3.90440
       H   -14.01994  -13.77243   -3.24978
       O   -13.65671  -14.32944   -2.55452
      H1   -14.06862  -13.89599   -1.78084
       H    -8.99768  -15.92063    9.06673
       O    -8.23022  -16.21780    8.60201
      H1    -8.65817  -16.30390    7.70766
       H   -12.24382  -11.45899    6.18110
       O   -12.47353  -12.18088    5.57251
      H1   -11.60669  -12.34945    5.15533
       H   -15.56136  -15.48765   -1.33865
       O   -15.26608  -15.73785   -0.41837
      H1   -15.64533  -14.99363    0.05405
       H   -18.07940  -18.94504    6.59189
       O   -18.46063  -18.65297    5.71258
      H1   -19.35958  -19.07115    5.74870
       H    -9.13713  -12.69366    7.42311
       O    -9.29356  -13.61270    7.20752
      H1    -9.15120  -13.62139    6.24748
       H   -14.70450  -12.98207    5.45127
       O   -15.39015  -13.62276    5.14162
      H1   -15.99547  -13.00199    4.62213
       H   -15.07114  -17.62981    0.12818
       O   -14.49441  -18.40938   -0.19572
      H1   -14.51023  -18.22108   -1.13611
       H    -3.51819  -14.09873    5.91371
       O    -3.28202  -14.53800    5.09914
      H1    -4.14233  -14.38582    4.61451
       H   -13.23136  -17.00736    0.62554
       O   -12.41643  -16.61359    1.03752
      H1   -11.88882  -17.39916    1.27388
       H   -11.00662  -15.75415    0.44363
       O   -10.28234  -15.15224    0.23578
      H1    -9.62240  -15.45910    0.87209
       H    -4.21465  -17.16998    1.96839
       O    -4.64741  -16.54104    1.33686
      H1    -3.88542  -15.89386    1.16072
       H   -10.61453  -19.34241    0.89245
       O   -10.85812  -18.85554    1.66559
      H1    -9.99820  -18.39664    1.87893
       H   -13.48315  -11.38064    2.65923
       O   -14.12805  -10.71454    2.98974
      H1   -14.35473  -10.10105    2.28222
       H   -16.88627  -18.62950   -5.48227
       O   -16.48605  -19.19669   -4.81833
      H1   -17.20275  -19.54765   -4.25265
       H   -13.83262  -17.91035   -3.41948
       O   -14.45722  -18.49602   -2.90603
      H1   -15.10466  -18.66778   -3.60090
       H    -6.59354  -19.47236   -6.20883
       O    -6.17384  -19.52996   -5.35032
      H1    -6.39408  -18.71672   -4.92155
       H    -8.44718  -17.67286    6.34318
       O    -9.13885  -17.01618    6.22530
      H1    -9.87600  -17.56296    6.67275
       H   -15.25616  -16.52436    2.76249
       O   -15.94574  -17.02788    2.23463
      H1   -16.63041  -17.23831    2.90268
       H   -14.16955  -13.38362    1.37246
       O   -15.05340  -13.27187    0.84136
      H1   -15.56034  -12.75896    1.48957
       H   -17.31935  -15.31740    2.48457
       O   -17.98721  -14.65636    2.69599
      H1   -18.63088  -15.20553    3.14460
       H   -11.49592  -19.04820    7.67978
       O   -11.15527  -18.86770    6.81276
      H1   -12.00719  -18.48898    6.45507
       H   -12.96991  -16.03024   -3.12823
       O   -12.48282  -16.79623   -3.50766
      H1   -11.89983  -16.32945   -4.08843
       H    -8.24372  -19.34609   -3.15014
       O    -8.94852  -18.81463   -2.78487
      H1    -9.09252  -18.22191   -3.52233

