180
frame 0 | Written by MDAnalysis XYZWriter (release 2.4.3)
       H   -17.91946    5.44898   10.20193
       O   -17.70844    6.16031    9.55639
      H1   -17.40468    5.75695    8.76130
       H   -17.04992   -1.27133    5.45883
       O   -17.21958   -2.21017    5.49047
      H1   -17.29407   -2.26359    6.46011
       H   -18.91433    3.49901   11.79750
       O   -18.39321    3.71180   10.99568
      H1   -17.67299    3.04093   11.05099
       H   -15.03272    7.83112   10.11821
       O   -15.32027    6.97389   10.60490
      H1   -16.20129    6.85557   10.22850
       H   -17.02768   -0.74389   12.14561
       O   -16.42894   -0.25992   12.74360
      H1   -17.02731   -0.23369   13.53337
       H   -13.70413    0.69916    3.17817
       O   -13.51641    1.41944    3.79138
      H1   -14.07000    2.16373    3.63567
       H   -10.07299   -1.39827    7.44305
       O   -10.62843   -1.62341    6.73466
      H1   -10.01021   -2.01288    6.12801
       H   -17.67568    3.23255   17.08519
       O   -17.08794    2.50073   16.89112
      H1   -16.35465    2.95869   16.45729
       H   -18.50599   -1.83881   14.12731
       O   -18.48563   -2.15801   13.22519
      H1   -18.17655   -3.06308   13.42608
       H   -13.75119   -0.90480   10.39922
       O   -13.35532   -1.49377    9.73087
      H1   -14.16608   -1.91918    9.42921
       H   -15.30672    7.55780   13.44503
       O   -14.59775    6.96802   13.12815
      H1   -14.83044    7.01679   12.24455
       H   -14.16698    3.56413   16.53371
       O   -14.82352    4.14570   16.15180
      H1   -14.69764    4.96105   16.62545
       H   -18.31814   -2.50247    4.06464
       O   -18.69789   -2.95930    3.31500
      H1   -19.29821   -2.36831    2.88646
       H   -12.57469    1.60119    9.61235
       O   -12.30441    2.23207    8.90103
      H1   -12.12057    1.60656    8.20310
       H   -17.40598    1.00437   15.52912
       O   -17.31275    0.07030   15.25764
      H1   -16.40062   -0.13407   15.57322
       H   -19.30478   -4.12041    4.58589
       O   -19.20044   -4.67434    5.41312
      H1   -19.29237   -4.01080    6.14392
       H   -19.32108    7.27446    4.44422
       O   -18.83786    6.53506    4.91256
      H1   -19.61293    5.94433    5.07234
       H   -19.48909   -6.99468   12.02370
       O   -18.56183   -7.21818   12.19901
      H1   -18.64439   -7.97353   12.84250
       H   -16.31527   -7.37801   10.65673
       O   -15.63091   -7.85899   10.06902
      H1   -14.96632   -7.19365   10.06813
       H   -17.64385    0.09011    2.28969
       O   -16.81738    0.50238    2.09943
      H1   -16.23075   -0.26809    1.96737
       H   -18.64684   -0.24015   17.10390
       O   -19.34929   -0.75404   17.57323
      H1   -18.90977   -1.62112   17.36337
       H   -17.23046    4.49363   14.34467
       O   -18.07350    4.81159   14.69538
      H1   -17.91771    5.36950   15.51478
       H   -18.18574   -5.70727   13.65618
       O   -18.36590   -4.86504   14.14653
      H1   -17.77548   -4.75171   14.81651
       H   -13.98473   -0.37264   14.81316
       O   -14.47773   -0.00128   15.57332
      H1   -13.85096    0.75289   15.75294
       H   -12.74530    0.72196    5.45446
       O   -12.24005    0.81447    6.29284
      H1   -11.56048    0.09197    6.14198
       H   -11.48436    6.56513    8.66416
       O   -12.36803    6.77173    9.19409
      H1   -12.74313    5.85424    9.12866
       H   -15.75562   -5.17525    3.74497
       O   -15.16068   -4.79683    4.43364
      H1   -15.71161   -4.90529    5.18481
       H   -14.34277   -1.34080    1.15880
       O   -15.16342   -1.60618    1.65173
      H1   -14.62009   -1.68028    2.47723
       H   -17.33592    3.01965    2.13654
       O   -17.63056    3.42354    1.28655
      H1   -17.65498    2.66599    0.65770
       H   -15.68974    2.68453   12.48609
       O   -15.72687    1.98884   11.80147
      H1   -16.32953    1.32495   12.22001
       H   -15.77365    2.25293    8.44135
       O   -16.23752    1.51094    8.06423
      H1   -16.71218    1.96601    7.31223
       H   -13.76282   -6.88855    6.79859
       O   -13.54267   -6.53393    7.68936
      H1   -13.29096   -5.62176    7.46952
       H   -14.02841   -4.85101   12.48454
       O   -14.48838   -4.80690   11.62461
      H1   -13.73557   -4.69372   11.04915
       H   -18.67553    0.77261    5.12153
       O   -18.60965    0.85209    4.17441
      H1   -17.63697    0.82321    4.03854
       H   -15.24370    5.12521   13.23906
       O   -15.68214    4.28444   13.48050
      H1   -15.23244    4.08483   14.34605
       H   -15.65121    5.83058    6.48042
       O   -16.04713    5.53064    7.32250
      H1   -15.23315    5.27792    7.76870
       H   -12.34759   -3.37417    6.60704
       O   -12.76966   -4.17214    6.29953
      H1   -13.50836   -3.90510    5.66226
       H   -15.92775    4.00363    3.73784
       O   -14.98584    3.74051    3.62183
      H1   -14.86744    3.84131    2.64830
       H   -16.40996   -5.06557   11.58906
       O   -17.19369   -5.27436   11.04108
      H1   -17.61101   -5.93769   11.62003
       H   -18.29246    0.85190   10.07344
       O   -18.19848   -0.06358    9.82334
      H1   -17.44145   -0.07377    9.13161
       H   -12.44159   -2.67319   10.63961
       O   -12.09334   -3.32604   11.33194
      H1   -11.14009   -3.35688   11.20064
       H   -13.32781   -3.23510   14.15823
       O   -13.15856   -4.11021   14.49273
      H1   -13.35031   -3.97146   15.46163
       H   -15.87319   -3.35284    8.01308
       O   -15.92031   -2.38238    8.16977
      H1   -15.45585   -2.00786    7.43179
       H   -13.17584    4.76543    7.17497
       O   -13.48287    4.64387    8.09501
      H1   -12.91420    3.84729    8.26489
       H   -15.41178   -1.17392   17.83066
       O   -14.49485   -1.53630   17.87587
      H1   -14.13463   -1.03991   17.05474
       H   -12.99656   -0.08936   11.91740
       O   -13.22954    0.68897   11.45841
      H1   -14.01180    1.03095   11.91889
       H   -12.06187    2.43949   11.71435
       O   -11.39421    3.05798   12.07924
      H1   -11.84232    3.53314   12.79926
       H   -14.12422   -2.09208    4.88570
       O   -13.85515   -2.37549    4.04501
      H1   -14.50187   -3.14862    3.96739
       H   -20.13411   -3.88940    7.76593
       O   -19.39940   -3.26458    7.89724
      H1   -18.74415   -3.73224    8.34873
       H   -17.61870   -6.06333    9.25266
       O   -17.45023   -6.63624    8.54417
      H1   -16.69868   -7.20060    8.84538
       H   -14.72536   -0.54289    6.14160
       O   -14.20533   -1.28538    6.43529
      H1   -13.52555   -0.85171    6.94590
       H   -16.77981    4.04029    6.76925
       O   -17.35464    3.26718    6.51442
      H1   -18.05343    3.41811    7.10532
       H   -16.93379   -5.74431    7.23036
       O   -16.76494   -4.92338    6.73875
      H1   -17.55042   -4.76764    6.21914
       H   -13.17506   -2.11101   12.39890
       O   -13.60059   -1.56741   13.16470
      H1   -14.51028   -1.52195   12.85825
       H   -19.27398    3.97554   13.69881
       O   -19.83340    3.31477   13.20145
      H1   -19.47562    2.47647   13.55781
       H   -19.66383    4.58913    7.93930
       O   -19.36894    3.68204    8.05227
      H1   -18.76142    3.77677    8.82653
       H   -18.88942   -3.49089   16.62395
       O   -17.98125   -3.20208   16.89428
      H1   -17.88390   -3.69084   17.74796
       H   -18.75078   -7.69474    9.14289
       O   -19.41574   -8.37684    9.24690
      H1   -19.43631   -8.64173    8.33712
       H   -17.67973    3.69561    4.82392
       O   -17.50361    4.06465    3.88756
      H1   -17.82462    5.03421    3.93957
       H   -14.88660    1.17184    4.86596
       O   -15.63647    0.70550    5.31523
      H1   -15.58018    0.88722    6.25808

