180
frame 6 | Written by MDAnalysis XYZWriter (release 2.4.3)
       H     3.49250    7.97809  -12.81602
       O     4.16255    8.22032  -12.15837
      H1     4.22030    9.18319  -12.28203
       H     0.24057   15.19416  -13.25488
       O     0.29099   16.10078  -12.78155
      H1     0.66461   16.68007  -13.48634
       H     6.46716   12.37319  -11.39152
       O     6.27510   12.95986  -10.60219
      H1     5.51373   13.49236  -10.86304
       H     2.76558   10.70483  -12.28770
       O     3.69165   10.98041  -12.18024
      H1     3.74156   10.82869  -11.22394
       H    -3.34747   17.54033  -12.90101
       O    -3.49863   18.50874  -13.03835
      H1    -3.42926   18.63837  -14.00965
       H    -4.37919   17.91104   -8.64270
       O    -3.36802   18.01558   -8.72316
      H1    -3.12756   18.33108   -7.77245
       H    -2.05288   12.27909   -7.39732
       O    -2.00097   11.32940   -7.54849
      H1    -1.31400   11.33207   -8.22595
       H    -4.08275   16.08931   -4.59506
       O    -3.26276   15.53497   -4.50221
      H1    -3.55764   14.71868   -4.08575
       H    -2.95065   15.03321  -15.30169
       O    -2.52432   14.17092  -15.28477
      H1    -2.76429   13.77752  -14.42467
       H    -3.20754    8.39535  -12.65589
       O    -2.28209    8.47354  -12.28053
      H1    -2.18949    9.40301  -12.14183
       H    -0.49302    8.17185   -8.09053
       O    -0.76009    7.96989   -7.20598
      H1    -0.82776    8.81556   -6.72641
       H    -6.02187   12.39023   -6.58486
       O    -5.23077   12.97981   -6.41440
      H1    -5.63245   13.54937   -5.75300
       H     0.97177    8.23069   -9.40949
       O     0.05468    8.17949   -9.68184
      H1    -0.02546    7.32997  -10.16339
       H     1.63687   16.26100  -11.57379
       O     2.17845   16.40094  -10.78056
      H1     2.20083   17.37813  -10.74920
       H    -3.98277   14.85376  -12.56286
       O    -4.71392   14.19462  -12.73908
      H1    -4.91612   14.20239  -13.67448
       H    -6.61708   11.16021  -11.01360
       O    -6.34440   12.09694  -11.25531
      H1    -6.67066   11.93710  -12.17144
       H    -2.21889   17.28321   -4.30208
       O    -1.81059   18.13733   -4.35979
      H1    -1.29877   18.08898   -5.20367
       H     2.51267   11.85973  -15.74459
       O     1.49346   11.95503  -15.74952
      H1     1.41774   12.64688  -16.47990
       H     1.02291   14.08235   -6.47005
       O     0.57322   14.15836   -7.31293
      H1    -0.35321   14.16550   -6.97198
       H     1.26473    9.10497  -12.36073
       O     1.16252    9.97357  -11.91639
      H1     0.62620    9.70812  -11.15845
       H    -0.03580   13.75149   -2.48365
       O    -0.43150   14.30004   -3.19125
      H1    -1.01188   13.66734   -3.66401
       H    -0.30047   12.69909   -9.64729
       O     0.00134   11.99909   -9.03873
      H1     0.39098   12.59779   -8.34593
       H     2.38321   14.76231   -4.60500
       O     1.86180   13.96951   -4.79122
      H1     1.12413   14.10045   -4.19233
       H    -2.23087   11.37846   -4.25999
       O    -1.32227   11.52476   -4.03608
      H1    -1.23036   11.16959   -3.14357
       H    -3.00918   16.45910   -8.88514
       O    -2.85039   15.49015   -9.15265
      H1    -3.68726   15.09001   -8.91835
       H     6.02900   11.27731   -8.26560
       O     6.60322   11.25848   -7.49093
      H1     6.71222   10.31492   -7.27802
       H    -2.08111   14.47358   -7.78579
       O    -2.11723   13.88990   -7.02020
      H1    -2.66173   14.43497   -6.44480
       H     4.69842   17.70836   -6.46684
       O     3.69966   17.67428   -6.35381
      H1     3.42779   17.01881   -7.02312
       H     4.51028   11.78203   -9.42390
       O     4.83512   10.92379   -9.69044
      H1     5.69361   11.08337  -10.12327
       H    -4.76626    8.79236  -13.69877
       O    -5.04960    8.66368  -12.74226
      H1    -4.71709    9.40935  -12.32739
       H    -5.07075   13.32519   -9.83993
       O    -4.94681   13.75846   -8.93929
      H1    -5.16256   13.04685   -8.33325
       H    -5.99606   15.13485   -9.98857
       O    -6.49116   15.17312  -10.84384
      H1    -5.82642   14.94173  -11.49822
       H     0.90806   12.14853  -12.59843
       O     1.18611   12.89997  -13.21725
      H1     1.26155   12.44600  -14.03842
       H     3.11100    6.79759   -8.87819
       O     2.71150    7.61471   -9.18358
      H1     3.11745    7.77405  -10.07819
       H    -1.45296   15.95353  -11.96657
       O    -2.44046   15.92259  -11.81847
      H1    -2.54025   15.72131  -10.90459
       H    -0.42054   11.09449  -15.10636
       O    -0.75489   10.37864  -14.53063
      H1    -0.05054   10.40759  -13.87466
       H    -7.21445   13.34448   -8.84505
       O    -7.76655   12.73564   -8.32620
      H1    -8.18109   13.32558   -7.67600
       H    -2.61204   12.51180  -11.90647
       O    -1.78123   12.94380  -11.99538
      H1    -1.99080   13.79495  -11.68817
       H    -3.75661   10.57272   -7.90803
       O    -4.05074   10.08026   -8.63870
      H1    -4.96086    9.80447   -8.37099
       H    -6.61250   12.19902  -14.18857
       O    -6.57194   11.25417  -13.98183
      H1    -5.62352   11.16815  -13.94033
       H    -3.04490   11.01175  -14.55796
       O    -3.78888   11.50167  -14.91886
      H1    -3.96444   10.99391  -15.68865
       H     0.81677    7.16030   -5.06711
       O     1.49888    7.34820   -5.76075
      H1     0.95319    7.14246   -6.56933
       H     6.40892   13.99110   -9.03739
       O     6.25866   14.76925   -8.43633
      H1     6.29353   14.37190   -7.55468
       H    -0.44808   17.98944  -12.36874
       O    -0.40427   18.81436  -11.90880
      H1    -1.32049   19.12004  -11.94440
       H     4.04846   13.91491  -14.22746
       O     3.96287   13.90399  -15.18912
      H1     4.44445   14.72593  -15.36157
       H    -4.71980   12.08325   -3.98646
       O    -4.49642   11.36796   -4.64339
      H1    -4.61194   11.85117   -5.45455
       H    -4.56382   11.63309  -11.18925
       O    -3.75566   11.10036  -11.24509
      H1    -3.73533   10.86920  -10.30897
       H    -2.31657    7.38576   -7.66720
       O    -3.08011    7.18301   -8.27513
      H1    -3.35322    8.10540   -8.54701
       H    -2.20659    7.07409  -11.27207
       O    -2.33669    6.25398  -10.70504
      H1    -2.39989    6.68012   -9.79650
       H     1.80914    6.78066  -12.13564
       O     1.67459    7.35156  -12.88585
      H1     0.89705    6.97220  -13.28107
       H     2.80661   13.56078  -12.37026
       O     3.78375   13.48488  -12.21016
      H1     3.93652   12.51667  -12.22911
       H     3.44844   12.90471   -7.97216
       O     3.48821   12.97879   -8.91834
      H1     3.72322   13.86684   -9.02570
       H     3.72861   16.91469  -11.64671
       O     4.54777   17.32983  -11.95504
      H1     4.26392   17.57204  -12.83162
       H    -0.99037   14.88721  -15.98419
       O    -0.26276   15.47504  -16.25520
      H1     0.28213   14.89606  -16.84836
       H    -0.74121   19.17255   -6.71934
       O    -0.32783   18.28338   -6.66063
      H1    -0.03271   18.18342   -7.63401
       H     1.89162   10.27814   -4.52524
       O     2.57635    9.97488   -3.99332
      H1     2.28276    9.44233   -3.25257
       H     3.13024   12.77488   -5.62767
       O     3.93704   12.53097   -6.17423
      H1     3.65876   11.59683   -6.38808
       H     3.78996    9.19775   -7.61725
       O     3.66450    9.23981   -6.66343
      H1     2.78411    8.84681   -6.46261
       H     1.42932   15.61227   -7.50021
       O     1.78488   16.45854   -7.84282
      H1     1.77217   16.35971   -8.76708
       H     0.05833   11.19425   -6.66103
       O     0.50990   10.93162   -5.85758
      H1    -0.22158   11.15988   -5.24887

