180
frame 8 | Written by MDAnalysis XYZWriter (release 2.4.3)
       H    17.72432    4.93037    4.66440
       O    17.20188    5.41935    3.99467
      H1    16.65986    4.62545    3.78466
       H    16.68013   -1.08338   11.80243
       O    16.51894   -1.00152   10.83413
      H1    17.29455   -1.56490   10.49989
       H    12.03080    6.01209    8.59792
       O    12.75821    5.43350    8.24111
      H1    12.90485    5.95071    7.46387
       H    17.74325    1.66862   10.33008
       O    16.83759    1.69805   10.72931
      H1    16.55592    0.78483   10.62479
       H    14.14642    1.31563   11.65586
       O    13.42490    1.23965   10.97349
      H1    13.42157    0.25851   11.14860
       H    16.96999    7.85596    6.01026
       O    16.31635    8.00666    5.30229
      H1    16.36578    7.12795    4.92512
       H    13.97547    6.49818   11.34339
       O    14.51291    6.30232   10.58234
      H1    13.78277    5.90299    9.97683
       H    15.69521   -1.38479    9.11530
       O    15.24763   -1.27299    8.23602
      H1    14.89954   -0.46011    8.58429
       H    14.63767    1.49594   -0.01239
       O    15.09591    1.44030    0.86066
      H1    15.51529    0.55619    0.70496
       H    15.17384   -1.09622    4.70321
       O    15.42831   -1.99879    4.75933
      H1    15.30626   -2.21340    3.82572
       H    17.20767    8.03043   -1.44356
       O    17.36135    7.08895   -1.31683
      H1    17.43525    7.02230   -0.32660
       H    17.66902    7.56584    1.91413
       O    16.97471    6.95383    1.66722
      H1    16.93416    6.43005    2.48974
       H    14.15493    1.54704    9.19928
       O    14.31378    1.25232    8.27433
      H1    14.42068    2.15050    7.81659
       H    16.61710    0.45577   -1.15495
       O    16.20333   -0.15885   -1.80001
      H1    16.17532    0.29826   -2.65788
       H    14.99868    2.67518   -1.69017
       O    14.02986    2.62168   -1.66437
      H1    13.70175    3.48982   -1.44768
       H    14.93301   -3.46508    1.94166
       O    15.09930   -2.50995    1.94382
      H1    14.76294   -2.19902    1.07886
       H    12.22517   -1.05230    6.79510
       O    11.54300   -0.31471    6.84994
      H1    11.05678   -0.47375    6.05853
       H    18.55290    1.20616    5.14475
       O    19.25035    1.67199    5.61053
      H1    19.34656    0.96353    6.29008
       H    12.73178   -2.61706    4.25933
       O    12.34497   -2.55926    3.40309
      H1    12.93754   -3.01895    2.83004
       H    13.56351   -1.06211   -0.69122
       O    14.42500   -1.18244   -0.27547
      H1    14.98627   -0.83042   -1.02144
       H    11.57645   -1.28297   11.24705
       O    12.52385   -1.27997   11.08422
      H1    12.84251   -1.73440   11.87914
       H    16.60087   -3.34266    0.34156
       O    17.45098   -3.55263    0.66537
      H1    18.08141   -2.95453    0.19549
       H    18.81085   -4.84620    0.69673
       O    19.60456   -5.43048    0.73272
      H1    20.23487   -4.87287    1.28634
       H    17.63996   -6.33865    4.51837
       O    18.40152   -5.98989    4.05436
      H1    18.39811   -5.08963    4.30576
       H    13.46971    6.52188    2.93620
       O    13.95124    6.70251    3.74749
      H1    14.65698    7.30828    3.41961
       H    15.52038    2.00178    2.57397
       O    15.49492    2.40263    3.44437
      H1    15.03539    1.85064    4.09094
       H    15.77858    8.17105    2.25071
       O    14.99041    8.78768    2.14694
      H1    14.74132    8.76791    1.21483
       H    11.94589    3.91482   -0.26849
       O    11.74816    4.62029    0.41435
      H1    11.92945    4.04281    1.18969
       H    11.01979    5.44884    3.86751
       O    11.21612    4.60539    3.44946
      H1    11.80693    4.09187    4.05865
       H    15.10208   -4.04749   10.85142
       O    15.51112   -4.20951    9.97426
      H1    15.74193   -5.11582   10.17004
       H    18.13670    4.34857    6.98709
       O    18.91928    4.34522    6.38356
      H1    19.03241    3.37196    6.24125
       H    14.71291    3.85106    2.35125
       O    14.71285    4.75344    2.01173
      H1    14.49411    5.28375    2.76767
       H    16.45246    3.11492   -2.83181
       O    17.40487    2.94831   -2.59525
      H1    17.77761    2.89997   -3.52095
       H    17.40207   -1.87892    2.63997
       O    18.15417   -1.43170    3.16678
      H1    18.66354   -1.17749    2.41294
       H    11.59141   -1.97364   -0.02596
       O    11.60691   -2.61232    0.67256
      H1    11.32566   -2.19949    1.49171
       H    16.04790    1.64342   12.66167
       O    15.27708    1.60110   13.20959
      H1    15.69459    1.31697   14.04185
       H    19.68057    3.56915    1.93501
       O    19.64577    4.51609    2.26815
      H1    18.91051    4.37422    2.90015
       H    15.68496    6.07766   -0.98328
       O    14.80929    5.94823   -0.59533
      H1    15.04878    5.54486    0.29791
       H    11.44790    2.03152    7.95043
       O    11.35492    2.86904    7.49948
      H1    11.97459    3.36019    8.00470
       H    10.64730    2.04316    1.47646
       O    11.24207    1.63372    0.80985
      H1    11.88796    1.25603    1.43199
       H    12.16256    8.08648    6.13388
       O    12.83839    7.45662    6.24111
      H1    13.31768    7.39872    5.41781
       H    15.49682   -3.87725   -2.07670
       O    15.00675   -3.76528   -1.27625
      H1    14.70969   -2.87572   -1.24181
       H    16.79399   -1.46058    5.70432
       O    17.26322   -0.96135    6.42949
      H1    16.71151   -1.19136    7.22097
       H    15.70012   -6.06587    0.08897
       O    16.53441   -6.27209    0.56334
      H1    16.85085   -5.34832    0.60912
       H    17.98069   -0.48453   -2.21051
       O    18.91699   -0.57933   -2.42942
      H1    18.82967   -1.11565   -3.17076
       H    17.97803   -3.38054    9.70481
       O    18.32081   -2.48486    9.56713
      H1    18.79088   -2.30957   10.43286
       H    14.08422   -2.36452    5.67717
       O    13.16950   -2.60846    6.06617
      H1    13.40982   -2.77123    6.98108
       H     9.47588   -0.58770    4.19924
       O    10.34428   -0.20485    4.23829
      H1    10.17609    0.68972    3.90323
       H    12.19421    3.17042    5.73802
       O    12.69021    3.00120    4.93745
      H1    12.51106    2.01855    4.80475
       H     9.67619   -3.98695    5.54420
       O    10.53782   -4.35106    5.44752
      H1    11.10279   -3.56964    5.20762
       H    17.70595    7.73316    7.92099
       O    18.04305    8.27761    7.20137
      H1    18.86864    7.83753    7.02148
       H    18.39117    3.91592   12.40689
       O    18.66151    4.82646   12.66285
      H1    17.80868    5.32819   12.63006
       H    16.90078    5.19104    8.80320
       O    17.05603    4.44831    8.26148
      H1    16.60501    3.82754    8.83835
       H    13.55856    0.28742    2.46137
       O    12.94966    0.67923    3.11979
      H1    12.40226    0.01857    3.44430
       H    14.83501   -5.89972    2.65036
       O    14.29563   -5.10789    2.62702
      H1    13.40955   -5.48048    2.58859
       H    17.21844    7.36068   10.30497
       O    16.76243    7.04388    9.50878
      H1    15.88252    7.01497    9.80512
       H    14.41511    0.22466    6.28020
       O    14.89667    0.52377    5.50373
      H1    15.69899    0.10640    5.75677
       H    17.33229    9.14979    4.27854
       O    17.84105    9.41648    3.48326
      H1    18.77955    9.39122    3.78836
       H    13.97103   -3.86037    8.95909
       O    13.18449   -3.35804    8.62547
      H1    13.06206   -2.61085    9.20016
       H    18.62005    1.73429    0.31065
       O    18.26160    1.44604   -0.54096
      H1    18.00367    2.27377   -0.97714

