180
frame 142 | Written by MDAnalysis XYZWriter (release 2.4.3)
       H    14.22211   14.61235   18.43274
       O    14.73116   15.31541   18.01068
      H1    14.24336   15.46162   17.16113
       H    13.10903    6.57954    9.92249
       O    12.60572    7.10861   10.52179
      H1    13.12044    7.91956   10.56770
       H     9.92158    6.37762   15.59928
       O    10.64367    6.49588   16.25963
      H1    11.18880    5.75087   16.15380
       H    17.48173    6.33621   14.65026
       O    16.55539    6.18177   14.46367
      H1    16.52982    6.36541   13.52149
       H    15.94040    4.25998   13.90949
       O    15.48151    3.40481   13.88185
      H1    16.20626    2.82497   14.18630
       H    19.30665   12.49506   19.23698
       O    18.95780   12.84684   18.38922
      H1    19.87725   12.88706   17.97315
       H     8.13892   11.72416   16.13417
       O     8.24524   12.70276   16.23418
      H1     8.83172   12.69397   17.00553
       H    13.71422   16.54232   15.21207
       O    13.31431   15.77246   15.61399
      H1    12.78317   16.19024   16.29045
       H    12.34031    6.12566   13.91443
       O    12.94814    6.72617   14.48244
      H1    12.20471    7.06954   14.98135
       H    11.64535   11.31475   15.64524
       O    12.32855   11.92188   15.99021
      H1    13.10553   11.38340   16.28694
       H    10.53663   12.15498   11.16361
       O    11.02841   12.92892   11.03167
      H1    11.49501   12.92804   11.86469
       H    12.35499   13.66021   19.03240
       O    13.12758   13.21339   18.68824
      H1    12.95556   13.37192   17.70731
       H     9.28514    7.60243   10.14857
       O     9.90406    7.86712   10.78572
      H1    10.70350    7.46030   10.48835
       H    10.41634   12.34383   18.40654
       O    10.38441   13.02650   17.72986
      H1    11.03243   12.73467   17.07022
       H    17.81178   12.33362   13.14253
       O    17.01700   11.85503   13.66116
      H1    17.42606   11.50118   14.50927
       H    15.77267    7.90410   17.86976
       O    14.91657    7.60246   17.42388
      H1    15.27787    6.77298   16.94167
       H    15.40224   11.57256   11.91992
       O    14.60598   11.92901   11.49625
      H1    14.07910   12.12218   12.27374
       H    15.11515   12.39926    8.52305
       O    15.82059   12.73924    7.96851
      H1    16.61194   12.29998    8.37280
       H    19.25673   12.57390   11.03051
       O    18.88771   12.99580   11.84316
      H1    19.50233   13.70413   12.08232
       H    17.17455   18.85735   17.50924
       O    16.59795   19.61067   17.40070
      H1    15.93195   19.29517   16.75447
       H    13.71645   16.91030   12.25388
       O    13.96304   17.74239   12.74729
      H1    13.06698   17.87589   13.10395
       H    17.21889    5.20935   18.14176
       O    17.85629    5.72447   17.66418
      H1    18.65360    5.38298   18.13095
       H    15.64915    9.31547   12.61369
       O    16.56048    9.52005   12.34509
      H1    16.73068   10.39509   12.83315
       H    14.84279    6.08466   11.23274
       O    15.32331    6.56415   11.95677
      H1    14.68882    7.23797   12.21259
       H    17.63050    6.43202   10.70151
       O    17.77748    7.31887   10.37724
      H1    17.31976    7.86584   11.02197
       H    14.73398    9.42848   17.04986
       O    14.60052   10.49572   17.12031
      H1    15.51672   10.72081   16.84451
       H     5.80377   10.02612   17.79317
       O     6.52078   10.62270   17.48727
      H1     7.35820   10.33097   17.92361
       H     9.16848    4.87869   17.93534
       O     9.59052    5.41489   18.59741
      H1     9.91956    6.17184   18.01551
       H     8.62044    8.69787   16.79335
       O     8.64867    8.40402   17.73256
      H1     9.56281    8.44493   18.03742
       H    18.18607   16.76197   17.71927
       O    17.91602   17.27868   18.46893
      H1    18.69914   17.67323   18.86316
       H    18.63806    1.55833   14.81354
       O    18.04529    2.27853   14.62737
      H1    18.51783    3.07221   14.90802
       H    11.96091   15.54528   13.86199
       O    11.63540   15.37694   12.99072
      H1    12.32049   14.87914   12.59452
       H    12.76165    2.48850   14.18828
       O    12.95881    2.36806   15.11676
      H1    13.32619    3.24919   15.28557
       H    18.34428   11.06658    9.50287
       O    19.17634   11.60358    9.47753
      H1    19.75718   10.98369    9.00444
       H    13.83276    8.13741   13.74454
       O    14.15854    8.80382   13.14458
      H1    13.32722    9.23695   12.99582
       H    17.40232   15.51304   13.46912
       O    17.88198   15.85050   14.26167
      H1    17.75282   15.09778   14.86493
       H    14.14691   10.29421    9.66866
       O    14.18786    9.35191    9.69399
      H1    13.40504    9.20355    9.09346
       H    17.73606   14.27797   17.61180
       O    17.52187   14.91737   16.86363
      H1    16.51840   14.95783   17.00610
       H     9.59086   13.36495   12.51231
       O     9.20179   13.68089   13.38169
      H1    10.05016   14.08124   13.68549
       H    15.37710   12.73924   19.77602
       O    15.84906   12.12072   19.26530
      H1    15.07737   11.63519   18.86083
       H    14.94199    4.44272   18.98420
       O    15.49699    4.23798   18.19186
      H1    14.85115    4.47850   17.49096
       H    13.61953   15.00155   10.39753
       O    13.90883   14.99825   11.33959
      H1    14.84680   14.89107   11.29802
       H    17.81700    7.48108   18.54372
       O    17.69003    8.43038   18.54361
      H1    18.14474    8.49494   17.58773
       H    13.92698    5.77050   15.62737
       O    14.18427    4.88755   15.97023
      H1    14.74349    4.69336   15.23204
       H    11.33834    9.64180   11.96948
       O    11.70645    9.74947   12.81397
      H1    11.00217   10.09740   13.35844
       H    17.45765   14.14331   11.57851
       O    16.82281   14.86482   11.45688
      H1    16.98853   14.89980   10.51878
       H    12.16935   14.04486    8.59302
       O    13.00226   13.67250    8.97868
      H1    12.72566   13.24716    9.80147
       H    11.60894   17.82314   17.70474
       O    11.86887   16.89449   17.65048
      H1    12.50369   16.96155   18.40519
       H     9.37948   10.47984   14.50717
       O    10.13205   11.08832   14.39330
      H1     9.85074   12.02462   14.56227
       H    17.91393   10.25238   16.26377
       O    17.34580   11.02850   16.22602
      H1    17.80475   11.62636   16.81599
       H     9.06028   16.56641   17.43325
       O     9.28566   16.22342   18.32194
      H1    10.19124   16.37781   18.40415
       H    10.81724   18.83239   16.02045
       O    11.11079   18.24566   15.30895
      H1    10.51970   17.47196   15.23505
       H     7.12848    8.49361   15.29152
       O     8.09919    8.55704   15.12593
      H1     8.24084    7.88194   14.51760
       H    11.63738    4.91838   12.28302
       O    11.21985    5.00284   13.13677
      H1    10.35669    5.39099   12.88362
       H    14.69487   18.78189   14.37941
       O    14.28631   18.79939   15.25318
      H1    13.68747   19.51259   15.29487
       H    12.28819   11.28447   13.08360
       O    12.45877   12.25302   13.29122
      H1    12.25460   12.15435   14.27022
       H    18.92001    7.62305   16.08599
       O    18.78207    8.58609   16.19287
      H1    19.47660    8.79181   16.81093
       H     9.88747   14.44364   16.31938
       O    10.28798   15.08466   15.70014
      H1    10.93018   15.36484   16.36868
       H    16.36024    2.70041   17.56872
       O    17.01829    2.04113   17.31136
      H1    17.16772    2.20436   16.36535
       H    16.14928    9.52168    9.16523
       O    16.95618    9.82542    9.68270
      H1    16.65510    9.81366   10.56550

