180
frame 1 | Written by MDAnalysis XYZWriter (release 2.4.3)
       H    -4.32914  -12.45706  -16.04326
       O    -4.83235  -13.22987  -16.35891
      H1    -5.64949  -12.81946  -16.62151
       H    -9.99264   -6.02555  -19.44648
       O   -10.16307   -6.80559  -18.82966
      H1   -10.39094   -7.58442  -19.35988
       H    -5.44075  -13.41953  -14.80779
       O    -5.84751  -13.48399  -13.89655
      H1    -6.66362  -13.01861  -14.01501
       H    -2.33839  -11.42165  -15.96573
       O    -3.08954  -11.29053  -15.32287
      H1    -2.87652  -12.02127  -14.68260
       H   -12.36145  -14.82606  -13.78291
       O   -12.09486  -15.39484  -14.50328
      H1   -12.49333  -16.23343  -14.24499
       H   -11.39349   -8.56040  -11.66827
       O   -11.60474   -9.26809  -12.28163
      H1   -12.46867   -9.49039  -11.95145
       H    -8.77801  -12.07829  -14.68130
       O    -8.33954  -12.86688  -15.01913
      H1    -7.81526  -12.46976  -15.70386
       H   -10.37656   -9.88508  -16.35720
       O   -10.07420   -9.09524  -15.76359
      H1    -9.89413   -9.66693  -15.04348
       H    -8.67276   -6.00942  -12.06071
       O    -8.96184   -6.51083  -12.86730
      H1    -8.71411   -5.99561  -13.63657
       H   -11.09272   -6.47511  -12.47072
       O   -11.60044   -6.52460  -11.61187
      H1   -12.57099   -6.60972  -11.88471
       H   -14.87103   -3.22078  -18.43733
       O   -15.48594   -3.92551  -18.21357
      H1   -15.06854   -4.70161  -18.55445
       H   -11.74059  -11.14442  -18.63793
       O   -12.49732  -11.54781  -19.11178
      H1   -13.16046  -10.88243  -18.89469
       H   -13.40553  -19.02962  -17.32418
       O   -13.93161  -18.24078  -17.33350
      H1   -13.63067  -17.82061  -18.12234
       H    -7.03179   -5.77310  -12.94580
       O    -6.30890   -5.19838  -12.58656
      H1    -6.60898   -5.13985  -11.71379
       H   -17.08048   -7.76923  -18.16064
       O   -17.24699   -6.87464  -17.82560
      H1   -16.76510   -6.90291  -16.93664
       H   -10.24701  -11.66790  -17.75514
       O   -10.54799  -10.72214  -17.76562
      H1    -9.80305  -10.36927  -18.30961
       H    -9.22244  -15.69295  -17.96856
       O    -8.45622  -15.63995  -17.32213
      H1    -8.79941  -14.84283  -16.91942
       H    -6.61245   -9.65228  -13.57637
       O    -7.58886   -9.84340  -13.60880
      H1    -7.98111   -9.02536  -13.39652
       H   -16.08774  -12.56313  -12.96490
       O   -15.66649  -12.97442  -12.15503
      H1   -14.74824  -13.21146  -12.41044
       H   -16.70953  -13.14632  -15.61523
       O   -15.80389  -13.14079  -15.11373
      H1   -15.58801  -14.02858  -15.39644
       H   -10.08333   -3.87062  -14.31432
       O    -9.18821   -4.12211  -14.52289
      H1    -9.12969   -3.89454  -15.46427
       H   -14.92100  -11.73721  -15.82638
       O   -14.01175  -11.36456  -15.92846
      H1   -13.99542  -10.78954  -15.15157
       H    -3.07816   -7.20487  -16.19352
       O    -3.96558   -7.41002  -15.81963
      H1    -4.42313   -7.85976  -16.55397
       H   -10.10232  -12.66981  -13.14825
       O   -10.58754  -11.90616  -13.54745
      H1   -10.59794  -11.23567  -12.86634
       H   -16.34833   -9.61480  -12.73465
       O   -15.49871   -9.11094  -12.89765
      H1   -15.49862   -8.35933  -12.23087
       H   -18.10881  -11.85572  -19.14328
       O   -17.39628  -11.85969  -18.46819
      H1   -17.61684  -12.70458  -17.95847
       H   -14.56174  -11.66188  -11.41815
       O   -14.03105  -10.89407  -11.37024
      H1   -14.64246  -10.16245  -11.71802
       H   -10.01522  -13.18700  -16.01054
       O   -10.25957  -13.41394  -16.91364
      H1   -11.22275  -13.45942  -16.80145
       H   -12.79758  -15.50851  -18.27048
       O   -13.62809  -15.84989  -18.70163
      H1   -14.14718  -15.02087  -18.66506
       H   -12.69583   -8.72258  -14.08083
       O   -12.57546   -8.48024  -15.02092
      H1   -11.59844   -8.69145  -15.12910
       H    -6.75398  -15.95145  -13.71058
       O    -6.87563  -16.35977  -12.84392
      H1    -7.75544  -16.75595  -13.01487
       H    -6.78634  -14.75659  -11.85512
       O    -7.00984  -13.86434  -11.54653
      H1    -7.23469  -13.99281  -10.59890
       H   -13.10177  -13.71424  -11.13012
       O   -13.07972  -14.01171  -12.08796
      H1   -13.55693  -14.81855  -12.06342
       H    -9.74542  -19.19563  -17.39406
       O   -10.22948  -19.05770  -16.60933
      H1   -10.39294  -18.09437  -16.60141
       H    -4.23970  -14.70872  -17.02785
       O    -3.81381  -15.50806  -17.47591
      H1    -3.73378  -16.04793  -16.67241
       H   -17.08769  -10.23203  -18.77886
       O   -16.71239   -9.38564  -18.69496
      H1   -15.78554   -9.57697  -18.45182
       H    -7.72404  -10.95023  -12.30724
       O    -7.98981  -11.40296  -11.51692
      H1    -7.64769  -12.30524  -11.63090
       H    -8.92210   -7.33430  -17.89660
       O    -8.31099   -7.88235  -17.34433
      H1    -8.86232   -8.30515  -16.62082
       H   -13.50767   -9.29724  -18.42385
       O   -14.28274   -9.83788  -18.16330
      H1   -13.97228  -10.18780  -17.33049
       H    -6.28607  -10.78012  -17.11193
       O    -6.88969  -11.53857  -16.91751
      H1    -7.41824  -11.26020  -17.69618
       H    -8.79604   -9.89546  -10.87094
       O    -8.90674   -8.99387  -10.54824
      H1    -7.92253   -8.69160  -10.63367
       H   -11.03985  -12.46770  -10.58338
       O   -10.14296  -12.78569  -10.46583
      H1    -9.57823  -12.02959  -10.65336
       H    -7.89077   -9.37488  -18.55009
       O    -8.23333  -10.11667  -19.03493
      H1    -7.66982  -10.23068  -19.85622
       H   -17.80595   -9.64981  -16.22325
       O   -18.49537  -10.32016  -16.43213
      H1   -18.07850  -11.03403  -16.94738
       H   -11.40498   -3.50908  -12.73840
       O   -11.61392   -3.40324  -13.67285
      H1   -12.07375   -4.19805  -13.99111
       H   -15.28044   -6.78280  -15.24623
       O   -15.99520   -7.42669  -15.10757
      H1   -15.70612   -7.90047  -14.32636
       H    -4.23186   -8.25436  -13.64187
       O    -5.11776   -8.16383  -13.30041
      H1    -4.98366   -7.22725  -13.10512
       H   -13.52147  -13.08550  -16.25950
       O   -12.97923  -13.82620  -16.55891
      H1   -12.92360  -14.23436  -15.67549
       H   -15.52229   -6.53132  -18.58909
       O   -14.78326   -6.20287  -19.10411
      H1   -14.08982   -6.73967  -18.87593
       H   -14.14950  -12.68811  -18.72454
       O   -15.05491  -13.10176  -18.93671
      H1   -15.66339  -12.40642  -18.64933
       H    -6.68599  -16.71382  -18.04801
       O    -6.00603  -16.97605  -18.71374
      H1    -5.23602  -16.52002  -18.33345
       H   -11.17330  -16.53670  -19.71840
       O   -10.58931  -16.61506  -18.94853
      H1   -10.16050  -17.48418  -19.10365
       H   -13.30107   -5.48818  -16.17185
       O   -13.74778   -6.04869  -15.45016
      H1   -13.05926   -6.72461  -15.33091
       H   -16.68746  -16.44584  -16.88556
       O   -16.10407  -16.04993  -16.22852
      H1   -15.25288  -16.31082  -16.48114
       H    -4.47751  -10.21415  -16.10829
       O    -4.80491   -9.98695  -16.96452
      H1    -4.08038   -9.98608  -17.56277
       H   -11.76410   -3.44972  -16.60288
       O   -12.36376   -4.15256  -16.75268
      H1   -13.00125   -3.67651  -17.28613
       H    -9.14344  -16.28895  -15.53755
       O    -9.60138  -16.59186  -14.76244
      H1   -10.37563  -16.09447  -14.80729
       H    -6.20952   -4.95587  -16.34539
       O    -6.06333   -4.35902  -17.13957
      H1    -5.15376   -4.06154  -17.08487
       H   -12.56534   -7.70399  -16.76325
       O   -12.56419   -7.47942  -17.66802
      H1   -11.65703   -7.09854  -17.85771
       H    -7.49154   -6.67815  -15.91765
       O    -7.08279   -6.41554  -15.11517
      H1    -6.65809   -7.27534  -14.78624

