180
frame 2 | Written by MDAnalysis XYZWriter (release 2.4.3)
       H    -0.04210   -4.14215    6.37567
       O     0.43464   -4.97221    6.05829
      H1     1.02189   -5.22828    6.79173
       H    -4.01183   -7.34440    4.94829
       O    -4.82742   -6.78175    4.98113
      H1    -4.86713   -6.39705    5.88472
       H    -7.96979  -11.85322    8.51049
       O    -7.23813  -12.48601    8.44711
      H1    -6.65584  -12.13636    9.10513
       H    -9.84933  -11.02472    9.94469
       O    -9.39652  -10.65059    9.17079
      H1   -10.01087  -10.11417    8.69986
       H    -2.97809   -3.27120    9.78161
       O    -3.94496   -3.36737    9.82675
      H1    -3.97512   -3.25352    8.87506
       H     0.23828   -9.74635   10.00506
       O     0.53763   -9.21726   10.81098
      H1     0.76432   -9.94576   11.40927
       H    -3.50886  -11.99296    6.86441
       O    -3.70943  -11.72100    5.92582
      H1    -3.36899  -10.81377    5.94293
       H   -10.24203   -2.06130    8.39707
       O   -10.88031   -1.94968    7.59708
      H1   -10.75586   -2.76758    7.08227
       H    -8.23484  -11.30543   13.79032
       O    -8.08698  -10.35380   13.95227
      H1    -7.58502  -10.10491   13.14948
       H    -8.50864   -7.05156   10.41171
       O    -7.78866   -7.02916   11.06450
      H1    -6.98629   -6.69890   10.51525
       H    -8.87077   -8.91552    2.48950
       O    -8.98452   -9.35348    3.35401
      H1    -9.12089   -8.56343    3.84210
       H    -7.22216  -10.41230    2.97752
       O    -6.69883  -11.20981    3.05791
      H1    -6.60946  -11.15287    4.03837
       H    -2.28970   -8.15998    5.89174
       O    -2.50364   -8.21146    4.94532
      H1    -1.96648   -7.44828    4.63271
       H    -1.98274   -4.45363   11.68694
       O    -1.23729   -3.83607   11.52139
      H1    -0.92924   -4.38179   10.72457
       H    -5.26698   -3.05446   12.16567
       O    -5.87787   -2.32932   12.47406
      H1    -5.59587   -1.47086   12.05589
       H    -1.00531   -0.56100    7.83605
       O    -1.34332   -1.21354    8.50978
      H1    -1.56410   -0.60260    9.22584
       H    -6.66808   -8.29889   11.77544
       O    -6.41046   -9.21032   12.01580
      H1    -5.48587   -9.17724   12.29660
       H    -0.10362   -6.85409    3.76578
       O    -0.82313   -6.30823    4.04846
      H1    -0.43271   -6.06574    4.92647
       H    -0.93609  -11.32456    3.53109
       O    -1.06161  -10.67676    2.84747
      H1    -1.63135   -9.97233    3.18030
       H    -0.65451   -6.21245    7.10353
       O    -1.40388   -6.76508    7.42183
      H1    -2.06338   -6.03815    7.52623
       H     1.80943   -8.72491    7.28750
       O     1.05267   -8.42550    6.78398
      H1     1.47292   -8.27353    5.93471
       H    -4.89730   -1.71128    2.51549
       O    -4.76625   -2.33324    1.78417
      H1    -5.53852   -2.16499    1.29398
       H    -4.29870    1.15854    8.17165
       O    -4.77187    1.45006    7.39594
      H1    -4.92308    0.60170    6.99866
       H    -6.68755   -8.28400    7.01260
       O    -7.42562   -7.64721    6.94227
      H1    -8.08046   -7.88956    7.62016
       H   -12.09446   -6.47993    7.49848
       O   -11.14276   -6.39751    7.32294
      H1   -11.02584   -5.44141    7.11779
       H    -8.32106   -7.17640    5.38990
       O    -9.17800   -7.11492    4.96918
      H1    -9.83428   -7.10978    5.63184
       H    -4.69255   -9.41913    9.00600
       O    -5.56030   -9.30155    8.59939
      H1    -5.92185  -10.03494    9.18900
       H    -9.07752   -2.68625    3.83615
       O    -8.43703   -2.20293    3.29374
      H1    -8.05751   -2.93246    2.75524
       H    -2.94418  -10.67320   12.42321
       O    -2.92626  -11.12749   11.57838
      H1    -3.09232  -10.40478   10.96414
       H    -4.37551   -4.25043    2.42300
       O    -4.72814   -5.14843    2.19413
      H1    -4.33482   -5.63763    2.95167
       H    -2.33250   -9.23514    8.85952
       O    -3.04136   -9.08208    9.50482
      H1    -2.77499   -8.29711   10.02599
       H    -0.65750  -10.41739    7.84920
       O    -1.23963   -9.74837    7.46859
      H1    -0.55648   -9.12749    7.13239
       H    -3.25615  -13.00623    9.22178
       O    -3.88623  -12.81890    8.52860
      H1    -3.91626  -13.70131    8.08596
       H     0.14142   -3.06950   13.94128
       O    -0.81487   -3.33139   14.16810
      H1    -1.16481   -3.55128   13.27326
       H    -2.55149   -1.37065    5.35526
       O    -1.81148   -1.98861    5.41239
      H1    -2.03701   -2.57680    4.70714
       H    -6.30580   -5.56994   13.89196
       O    -6.19972   -5.29827   12.96963
      H1    -6.96312   -5.79578   12.64081
       H    -6.17276   -1.94521    9.20180
       O    -6.61469   -1.63392    8.41842
      H1    -7.15482   -0.83923    8.62047
       H    -9.21573   -1.23363   10.89387
       O    -9.29219   -1.28194    9.93218
      H1    -9.45594   -0.37097    9.71793
       H     2.74783   -6.36821    8.21600
       O     1.86251   -6.08869    7.92929
      H1     1.55061   -6.89438    7.43364
       H    -6.84812   -5.08719    2.07205
       O    -7.70919   -4.97710    1.57562
      H1    -8.34120   -5.00814    2.30872
       H    -7.80760   -2.91170    9.63843
       O    -7.80487   -3.63523   10.26752
      H1    -7.66471   -3.20812   11.10649
       H    -2.16198   -3.55259    2.48188
       O    -2.23450   -3.89621    3.33560
      H1    -1.67660   -4.70872    3.39396
       H    -5.73963    1.03055   11.99125
       O    -5.74067    0.15468   11.59227
      H1    -6.20884    0.45379   10.77324
       H     0.06442   -2.30794    8.78447
       O     0.91219   -2.70991    9.05297
      H1     1.41458   -2.61155    8.20316
       H     0.55413   -5.71780    9.68688
       O    -0.32026   -6.03310    9.88968
      H1    -0.55087   -6.42605    9.03256
       H    -9.59881   -8.57911    9.78455
       O    -9.43817   -7.91280    9.11306
      H1   -10.32729   -7.61309    8.81882
       H   -10.45264   -4.40506    5.29373
       O   -10.02860   -4.01968    6.03092
      H1    -9.15087   -4.43405    6.01056
       H    -7.28736   -4.46005    8.18199
       O    -7.53964   -4.69680    7.24616
      H1    -7.69014   -5.64629    7.31190
       H    -3.04489   -8.70742   12.98379
       O    -3.75326   -9.22021   13.38183
      H1    -3.45876   -9.21625   14.34596
       H    -5.10341   -5.88316    7.84080
       O    -4.84715   -5.25335    7.15923
      H1    -5.73607   -4.87851    6.98076
       H    -6.68073   -0.41712    4.93046
       O    -5.85897   -0.39771    5.43750
      H1    -6.16016   -0.89533    6.19117
       H    -5.39543  -11.42993    5.81019
       O    -6.35839  -11.37957    5.85178
      H1    -6.49100  -11.48812    6.80185
       H    -3.31877   -4.11754    7.13281
       O    -2.36752   -4.01576    7.46795
      H1    -2.10535   -3.24917    6.94386
       H   -10.57952   -5.16792    2.75917
       O    -9.79798   -4.88212    3.22536
      H1    -9.51868   -5.62667    3.79787
       H    -5.56797   -7.44624    9.43743
       O    -5.70537   -6.46715    9.33998
      H1    -5.04715   -5.99723    9.85183
       H    -3.30258   -5.26137   13.30823
       O    -3.53397   -4.83031   12.52585
      H1    -4.50662   -4.87768   12.64216
       H    -8.96410   -4.65486   11.11440
       O    -9.65406   -4.68177   11.78556
      H1    -9.60112   -5.62316   12.11240
       H     1.84508   -5.34318   11.31939
       O     2.10303   -4.47184   10.97435
      H1     1.28000   -4.20101   10.57256
       H    -4.96400  -11.37416   11.17965
       O    -5.85195  -11.50613   10.74483
      H1    -6.32394  -10.69543   10.99184
       H    -1.54078   -6.84222   11.25086
       O    -2.36636   -7.05995   11.64879
      H1    -2.76888   -6.14833   11.65500

