180
frame 6 | Written by MDAnalysis XYZWriter (release 2.4.3)
       H     6.20372   -4.54624   -2.82827
       O     5.80451   -5.46647   -2.76481
      H1     5.02807   -5.46215   -3.30562
       H     8.76792    0.55758   -2.54713
       O     8.90834    0.39928   -3.46083
      H1     8.50201   -0.48604   -3.51353
       H     5.30590   -0.50929   -4.38191
       O     6.20609   -0.77921   -4.39878
      H1     6.27333   -1.64337   -3.98932
       H     6.95549    2.48954   -5.19450
       O     7.69588    2.71843   -4.53436
      H1     8.01751    1.80956   -4.28622
       H    12.72529   -8.82754   -6.33743
       O    13.70275   -8.94554   -6.42375
      H1    13.99507   -8.94360   -5.52317
       H    16.39493   -5.58143   -4.32222
       O    16.87066   -5.00128   -3.73250
      H1    17.32658   -5.71032   -3.24277
       H    13.84678    2.12689   -0.42641
       O    14.18750    1.46755    0.24164
      H1    15.08120    1.52665   -0.09476
       H    12.29165   -5.93520   -4.20022
       O    12.32937   -6.17509   -5.18282
      H1    11.45698   -6.53059   -5.31171
       H    13.30852    2.08617   -7.90324
       O    12.91290    1.50139   -8.56556
      H1    13.64300    0.89805   -8.75425
       H     6.86332   -6.54573   -3.90992
       O     7.64227   -6.63802   -4.47448
      H1     7.45675   -7.29792   -5.13439
       H    13.58870   -2.00932  -10.32559
       O    13.14620   -1.17031  -10.20465
      H1    13.92866   -0.61788  -10.26130
       H    12.45143   -6.27966   -2.23458
       O    12.45068   -5.35466   -2.48753
      H1    13.37974   -5.04757   -2.47740
       H     9.35832   -2.68399  -11.39154
       O     9.50681   -2.16882  -10.52463
      H1     8.84862   -2.61026   -9.97370
       H    14.74332   -7.37239   -4.59849
       O    14.72633   -8.15102   -4.04373
      H1    14.02014   -7.86698   -3.49211
       H    13.94932   -6.79830  -10.96251
       O    13.37551   -6.08287  -11.34123
      H1    12.79735   -5.79648  -10.64050
       H    16.36946    0.63271   -1.61067
       O    15.92962    0.11235   -2.33169
      H1    15.23291    0.70825   -2.60783
       H    14.01042    3.87015   -1.12484
       O    13.67134    3.13994   -1.65103
      H1    12.87949    3.50659   -1.97143
       H    15.21857   -5.81572   -6.67177
       O    15.15505   -5.62606   -5.71387
      H1    14.21071   -5.45815   -5.52276
       H    11.57774   -7.60845   -1.42876
       O    11.88306   -8.05212   -2.26303
      H1    12.12301   -8.92420   -1.94792
       H     9.42529    3.46750   -5.00699
       O    10.28279    3.93431   -5.21202
      H1    10.81758    3.13671   -5.32696
       H    11.86803   -4.44920   -1.04270
       O    11.18475   -4.42299   -0.33469
      H1    11.17482   -3.52057   -0.00877
       H    14.33640   -2.95410    1.81409
       O    14.93669   -2.28270    1.52638
      H1    14.59859   -2.08046    0.64772
       H    18.71394   -2.92123   -5.43819
       O    18.05022   -3.53329   -5.76665
      H1    17.92814   -4.11322   -4.98045
       H    14.52788    1.10441   -5.78575
       O    14.75117    2.06474   -5.75472
      H1    15.58531    2.13744   -6.19712
       H     8.32405   -5.46362   -5.67829
       O     8.28258   -5.09863   -6.58375
      H1     9.20139   -4.70582   -6.62677
       H     5.71421   -4.41560   -6.71939
       O     5.99333   -3.82630   -5.96233
      H1     6.95284   -3.81709   -6.21021
       H    16.14775    0.00638  -10.19784
       O    15.47382    0.16822   -9.47353
      H1    15.65767    1.14304   -9.41569
       H    13.04112   -1.58401   -1.52619
       O    13.92935   -1.70286   -1.07411
      H1    14.33529   -0.91336   -1.49074
       H    11.80744    0.72866   -0.74589
       O    11.27355    0.60713    0.07821
      H1    11.75376    1.25346    0.61781
       H    17.21629    0.47152   -6.47257
       O    17.74157   -0.35850   -6.52682
      H1    17.01075   -0.93589   -6.76387
       H     9.84698   -0.47672  -10.29815
       O     9.89492    0.46531   -9.96542
      H1     9.04674    0.83348  -10.26044
       H    15.02553   -7.91235   -1.30905
       O    14.38120   -7.82519   -0.66151
      H1    14.39027   -8.73363   -0.26546
       H    15.80725   -1.79649   -9.36231
       O    16.03189   -2.49436  -10.02790
      H1    16.39610   -3.25270   -9.56842
       H    15.02173   -6.98268   -8.95824
       O    15.10063   -6.17757   -8.46176
      H1    15.77967   -5.78855   -8.99695
       H    18.23413   -5.09753   -9.06490
       O    17.44486   -4.74163   -9.48822
      H1    17.80603   -4.76443  -10.41119
       H     9.69280    1.17963   -0.41029
       O     8.77267    1.27942   -0.71103
      H1     8.62977    2.19906   -0.59786
       H    10.83602   -1.50712    0.95940
       O    10.96404   -2.19423    1.60855
      H1    11.54169   -1.69695    2.24275
       H    12.24679    0.69543   -7.25758
       O    12.21101    0.27354   -6.35755
      H1    11.43830   -0.29159   -6.61625
       H    10.02099   -2.22139   -2.80828
       O     9.33657   -2.91559   -2.80581
      H1     9.72746   -3.54427   -2.15017
       H    15.16716   -3.62002   -7.07496
       O    15.83089   -2.95926   -7.00580
      H1    16.33156   -3.40241   -6.21217
       H    12.44781    1.32477  -11.72200
       O    13.27528    0.88424  -12.02217
      H1    13.24547    0.05089  -11.56004
       H    10.51234   -6.02776   -9.32382
       O    10.33432   -6.74290   -8.70350
      H1     9.37196   -6.56831   -8.75535
       H    11.44456   -3.45923   -9.91079
       O    11.43008   -4.35816  -10.27260
      H1    11.01904   -4.28366  -11.16847
       H     9.29792   -7.64381   -4.19935
       O    10.18034   -7.72562   -4.53050
      H1    10.64305   -7.94564   -3.68793
       H    11.87637   -0.75577   -2.89093
       O    11.84134   -1.59747   -2.40788
      H1    12.25727   -2.17776   -3.13442
       H     7.48150   -1.80666    0.14744
       O     6.67913   -2.26914   -0.12304
      H1     6.98287   -3.17094    0.00369
       H     6.54274   -3.39368   -4.30927
       O     6.74682   -3.06636   -3.43478
      H1     7.79224   -3.19567   -3.46807
       H    13.61199   -2.12481   -5.10652
       O    13.11730   -2.80530   -4.60341
      H1    12.29743   -2.91318   -5.14552
       H    12.93517   -5.05875   -6.85411
       O    13.28848   -4.46195   -7.53520
      H1    13.77181   -5.07938   -8.11540
       H    11.80467   -3.52672   -7.24716
       O    10.78742   -3.59664   -7.13485
      H1    10.52190   -2.68315   -7.38561
       H    10.65199   -8.15225   -7.38678
       O    10.96101   -8.78791   -6.72222
      H1    10.58915   -8.44809   -5.91246
       H    15.66592   -4.27978   -2.62156
       O    14.92323   -4.30700   -1.97174
      H1    14.75753   -3.33597   -1.92474
       H     7.25279   -3.91310   -9.89514
       O     7.57177   -3.33711   -9.17337
      H1     7.60904   -3.98757   -8.50221
       H    14.93093   -1.49377   -6.31274
       O    14.44490   -0.85574   -5.78399
      H1    13.57993   -0.70389   -6.18230
       H    15.21136   -6.37228    0.23752
       O    15.83363   -5.68800    0.60707
      H1    15.76006   -4.95880    0.01139
       H    17.39731   -0.28198   -2.87072
       O    18.34728   -0.40521   -3.16365
      H1    18.26015   -0.31216   -4.10385
       H    10.85448   -6.09619   -0.10155
       O    10.71569   -7.04711   -0.13385
      H1     9.88149   -7.15183   -0.59828
       H    10.72847    1.08027   -3.08999
       O    11.67896    1.05376   -2.81031
      H1    11.91004    1.99090   -2.76782
       H     9.95281   -0.73303   -8.33028
       O    10.09074   -0.68766   -7.39495
      H1     9.58678    0.15438   -7.15868
       H    12.86204   -0.28621    1.42283
       O    12.94967   -0.25808    2.35564
      H1    13.86997   -0.47889    2.40955

