180
frame 10 | Written by MDAnalysis XYZWriter (release 2.4.3)
       H    -2.22691   15.77680   -1.76305
       O    -2.39998   16.73649   -1.81051
      H1    -2.26583   17.05823   -0.89912
       H    -2.32401   10.19971   -2.35706
       O    -2.26020    9.90143   -3.29647
      H1    -2.34167   10.72006   -3.75173
       H    -4.22309   16.51299   -4.94955
       O    -3.30063   16.19908   -4.84137
      H1    -3.35044   15.75091   -4.01694
       H    -4.20410    8.39662    0.95419
       O    -3.76650    7.70826    0.50054
      H1    -3.45877    7.14229    1.22430
       H    -0.97150    4.61211   -4.42114
       O    -0.04171    4.23205   -4.51883
      H1     0.55925    4.93213   -4.17839
       H     1.94440   10.53144    1.18589
       O     1.07386   10.11572    1.11373
      H1     1.09260    9.76152    0.18740
       H    -3.35300    4.77681   -3.95071
       O    -2.67220    5.38121   -4.25127
      H1    -3.02709    5.61721   -5.08578
       H     3.81976   12.27460   -2.93521
       O     4.65800   11.70118   -3.04549
      H1     4.65593   11.52215   -4.02127
       H    -2.73012    8.53881    6.15072
       O    -2.43318    8.89387    5.29121
      H1    -2.33704    8.06325    4.80649
       H     0.58031   15.69332   -1.92186
       O     1.46316   15.99455   -1.79101
      H1     1.41076   16.99956   -1.79846
       H    -4.78024    4.67156   -2.19253
       O    -4.53413    3.85338   -2.67584
      H1    -5.15092    3.92523   -3.39261
       H     0.76722    6.44677   -3.07396
       O     1.60828    6.11038   -3.42411
      H1     1.90522    5.50372   -2.71530
       H    -0.77125   17.59548   -0.18870
       O    -1.21169   17.17638    0.59025
      H1    -1.70622   18.00186    1.02447
       H     3.18154   14.11178    1.30838
       O     3.00941   13.62708    2.14668
      H1     3.87541   13.25183    2.41298
       H     3.33335    7.49019    2.54881
       O     3.60919    8.19675    3.16958
      H1     2.75102    8.45562    3.53532
       H    -1.36328   10.05671    1.70375
       O    -1.53524   10.19784    2.62611
      H1    -0.91305    9.67586    3.11877
       H    -0.12951   12.97786    4.17531
       O     0.04611   12.84893    5.14005
      H1    -0.83677   12.41176    5.36398
       H     2.66198   11.75311   -1.43607
       O     1.84372   12.17056   -1.82943
      H1     1.68553   11.47105   -2.55611
       H    -3.93375   14.26365    1.95204
       O    -4.88311   14.48163    1.66405
      H1    -5.26965   14.05143    2.41105
       H    -6.53369    6.14351   -1.20642
       O    -5.55756    6.10925   -1.57023
      H1    -5.24387    6.79583   -0.91841
       H    -8.05176   10.97367    1.21747
       O    -7.10824   11.18039    0.93796
      H1    -6.60622   10.99662    1.78344
       H    -4.31628    8.85354    4.94980
       O    -5.27717    8.83353    4.80107
      H1    -5.66824    9.22143    5.61728
       H    -3.96236    9.62501    2.44396
       O    -4.88543    9.70583    2.12141
      H1    -5.36583    9.55957    2.95787
       H    -6.20897    9.76815   -1.93899
       O    -7.09363    9.75371   -1.54363
      H1    -6.93118   10.17286   -0.67150
       H    -4.14442   13.09795   -2.75755
       O    -3.45926   13.17823   -3.36829
      H1    -2.75496   13.36652   -2.77107
       H     4.33600   11.07502    0.86812
       O     3.43008   11.33394    0.57671
      H1     3.38523   12.25586    0.95467
       H    -1.11136    7.85492   -0.88876
       O    -1.19311    8.26357   -0.03826
      H1    -2.11562    7.87893    0.08348
       H     0.74060   12.26363   -0.09347
       O    -0.07773   12.64458    0.19702
      H1     0.01323   12.60515    1.11627
       H    -3.36477   11.93723   -0.00719
       O    -3.90662   12.54480   -0.49624
      H1    -4.16165   13.17175    0.19966
       H    -1.05317    5.88246    1.40390
       O    -1.98962    5.61923    1.51073
      H1    -2.08915    6.01399    2.40345
       H    -0.69688   13.42149   -1.90778
       O    -1.12923   14.16120   -2.29279
      H1    -0.83620   14.18103   -3.18974
       H     2.65604   13.15897   -5.44427
       O     2.45721   12.68759   -6.26405
      H1     1.52629   12.48324   -6.12401
       H     0.34471   14.85596   -5.54675
       O    -0.15511   14.11744   -5.08482
      H1    -0.93579   13.89150   -5.57711
       H    -7.12129   12.02667   -3.43295
       O    -6.27753   12.50739   -3.40243
      H1    -5.65003   11.76890   -3.48071
       H     0.53177    8.76848    2.29223
       O     0.39852    8.38069    3.17958
      H1     0.15610    7.51471    2.83308
       H    -6.86281   13.53797   -6.11892
       O    -6.07327   13.95872   -5.76008
      H1    -6.15700   13.67354   -4.84522
       H    -1.90250    5.82756    4.34823
       O    -2.58079    6.40533    3.97824
      H1    -3.31851    5.75918    4.28312
       H    -6.07873   13.04567    4.67703
       O    -6.39872   13.40102    3.87643
      H1    -7.10810   13.93825    4.15222
       H    -1.10265    7.69151   -3.45934
       O    -0.94018    6.97445   -2.82364
      H1    -1.57557    6.28100   -3.08702
       H     1.03145    4.95531    2.67026
       O     0.85799    5.85388    2.32441
      H1     1.70848    6.03199    1.87688
       H    -3.53148    2.97512   -0.14436
       O    -3.53021    3.25304    0.79666
      H1    -3.03205    4.09683    0.76297
       H    -1.84418    9.69502   -0.29510
       O    -2.00047   10.62043   -0.56847
      H1    -1.28139   11.16812   -0.18673
       H     2.69889   15.09206   -0.81232
       O     3.47739   15.05269   -0.19995
      H1     4.15316   14.95358   -0.83577
       H    -4.09845    9.81292   -3.34538
       O    -5.00283   10.00070   -3.49503
      H1    -4.90674    9.72826   -4.42998
       H    -7.93633    7.12033    0.89719
       O    -7.65746    6.98571    0.00506
      H1    -7.54131    7.90053   -0.34929
       H    -2.92577   12.47856   -4.79720
       O    -2.50673   11.85805   -5.46104
      H1    -3.19860   11.65649   -6.11397
       H     4.75907    8.29370   -1.35574
       O     4.22224    7.50982   -1.02350
      H1     4.23170    7.00035   -1.88339
       H    -2.25728   12.81572    2.62724
       O    -2.33047   13.52138    1.91759
      H1    -1.47455   13.92038    1.76367
       H    -5.22374   17.51149    0.38921
       O    -4.96753   17.36441    1.29595
      H1    -5.17714   16.38739    1.40092
       H     1.41525    8.09666   -1.54696
       O     1.93674    8.90331   -1.42884
      H1     2.78291    8.49870   -1.14338
       H    -6.53982   13.18786    0.02473
       O    -6.99120   13.66559   -0.72192
      H1    -6.42471   13.37564   -1.52701
       H     1.45535   10.23021    5.33652
       O     1.92096   11.01187    5.64072
      H1     1.21687   11.73186    5.57253
       H     2.34422   14.47620   -3.35278
       O     3.12465   14.15130   -3.89518
      H1     3.34070   14.85724   -4.55544
       H    -9.53437    7.08984   -2.89469
       O    -8.63898    6.85154   -3.12717
      H1    -8.16874    7.42247   -2.46884
       H    -3.23904   11.52066    5.90153
       O    -2.24056   11.57291    5.83202
      H1    -2.27381   10.66808    5.38481
       H     0.20428   15.24534    3.05781
       O     0.36851   14.31617    2.80094
      H1     1.29557   14.19705    2.68198
       H   -10.08602   10.58494   -1.43870
       O    -9.73719   10.28630   -2.30500
      H1    -8.79561   10.27763   -1.97754
       H     1.63642    9.70829   -2.88993
       O     1.45106    9.99920   -3.79681
      H1     1.90404    9.30229   -4.25203
       H    -0.69294   16.85816    2.29649
       O    -0.69086   16.75227    3.24600
      H1    -1.63543   17.02701    3.54059
       H    -1.78740    8.46226   -5.27354
       O    -0.87797    8.47266   -5.56935
      H1    -0.48568    9.26351   -5.16072

