180
frame 68 | Written by MDAnalysis XYZWriter (release 2.4.3)
       H     5.32521    3.08643   19.57358
       O     4.98863    2.42309   19.00283
      H1     4.34927    1.94285   19.57558
       H    -7.76152   -3.23445   17.56894
       O    -8.01158   -3.97600   17.02624
      H1    -7.82875   -4.71145   17.62299
       H     1.29422    6.04801   15.95035
       O     1.38556    5.18857   16.33120
      H1     1.48632    4.71022   15.45417
       H     1.46273   -3.03097   12.13002
       O     1.52061   -3.48869   13.01333
      H1     0.64417   -3.35676   13.45680
       H    -4.29541    4.20229   18.55564
       O    -4.48427    4.66875   19.33949
      H1    -4.05730    4.19933   20.05815
       H     0.27826    1.94114   14.48337
       O     0.38491    1.81591   15.42734
      H1     0.01201    2.55085   15.90341
       H     0.35245    1.02304   11.24605
       O     0.27630    0.43777   10.50318
      H1     1.11522    0.59551   10.06305
       H     1.15002   -5.62895   12.68470
       O     0.35880   -5.89462   12.16720
      H1    -0.31806   -5.78959   12.87779
       H    -2.64696    0.93612   13.98577
       O    -2.03486    0.81858   13.26201
      H1    -1.56385   -0.02307   13.47437
       H     6.09225   -1.81916   13.52839
       O     5.15472   -1.69869   13.25954
      H1     5.17050   -0.74181   13.04714
       H    -4.16323   -4.93552   13.19482
       O    -3.66912   -4.22172   13.64698
      H1    -4.08152   -4.31794   14.50210
       H     7.13745   -1.16267   15.63396
       O     7.32780   -2.07083   15.89091
      H1     6.43915   -2.40356   16.17193
       H    -5.32116   -8.51677   19.00432
       O    -4.68920   -7.95404   19.42528
      H1    -4.94662   -7.05957   19.13093
       H    -2.81531   -2.72568   13.97379
       O    -2.44368   -1.81570   14.05856
      H1    -3.27568   -1.36346   14.25061
       H    -1.83114   -6.55761   14.36162
       O    -1.34805   -5.72733   14.50395
      H1    -2.09153   -5.10379   14.39749
       H     0.92546   -4.71726   16.44604
       O     0.02577   -4.86643   16.83405
      H1    -0.53171   -5.18917   16.11765
       H     1.15863   -6.46431   18.47265
       O     0.42215   -7.14287   18.48858
      H1    -0.32964   -6.60150   18.11824
       H     3.73500   -7.85295   16.62822
       O     4.32824   -8.02938   17.36336
      H1     3.81100   -7.76483   18.11557
       H     6.59397   -5.54000   17.07269
       O     5.68930   -5.49842   17.43630
      H1     5.47320   -6.41395   17.27547
       H    -6.58589    0.20532   16.81408
       O    -5.92848    0.72978   16.24636
      H1    -6.48917    1.25712   15.69588
       H    -2.20852   -7.52261   17.35159
       O    -2.21386   -6.57633   17.47641
      H1    -2.88669   -6.19833   16.85718
       H    -4.45240    3.84596   15.93768
       O    -4.90601    4.72511   16.04479
      H1    -4.29319    5.10446   16.67090
       H    -0.30163    3.29001   19.32694
       O    -1.16164    2.84787   19.14669
      H1    -1.64541    3.10950   19.90843
       H    -1.06228   -5.13773   11.49969
       O    -1.96784   -4.88552   11.13784
      H1    -2.35747   -4.39152   11.83797
       H    -6.83143   -3.93903   13.96126
       O    -7.19519   -4.81246   13.70946
      H1    -6.93827   -5.00067   12.81113
       H     5.31579    4.06715   16.22543
       O     4.47899    3.68440   16.34612
      H1     4.02656    3.89197   15.55579
       H    -1.48263    5.73739   19.48622
       O    -0.88456    5.90629   18.73555
      H1    -1.58525    5.96179   18.04068
       H    -3.03960    3.90612   12.42304
       O    -2.19756    3.54034   12.13081
      H1    -2.32671    2.58647   12.44994
       H     5.82811    0.14219   15.70504
       O     6.56943    0.40766   15.10523
      H1     6.92497    1.16889   15.62219
       H     3.11462   -7.10511   14.45797
       O     2.84469   -7.87836   14.97234
      H1     2.76137   -8.51856   14.14891
       H     4.01992   -4.95254   13.22779
       O     3.67322   -5.55448   13.92859
      H1     3.60661   -5.00483   14.70833
       H     1.62951    3.70542   18.60350
       O     1.25839    4.18790   19.38298
      H1     0.84568    4.93969   18.81203
       H    -1.32011    3.79627   17.52065
       O    -1.08576    3.79430   16.58804
      H1    -0.32860    4.39933   16.52416
       H    -4.88697    1.53183   17.49033
       O    -4.31120    2.11480   18.00043
      H1    -3.51100    1.56283   18.16256
       H     1.93728    1.93154   16.80868
       O     2.32344    2.46638   17.53456
      H1     3.22055    2.73554   17.18740
       H     7.86489   -2.82564   17.77009
       O     7.53301   -2.90708   18.69317
      H1     8.38523   -3.18992   19.13861
       H    -7.74964   -5.81914   15.25039
       O    -7.93071   -6.62585   15.73861
      H1    -7.45239   -7.23970   15.09186
       H    -4.93413   -0.37193   12.21824
       O    -4.96568   -0.40877   11.21475
      H1    -5.56568   -1.15376   11.00338
       H     2.26421    1.87616   12.40900
       O     1.50945    1.52209   12.89041
      H1     1.66432    0.58015   13.03190
       H    -6.74495   -6.07437   18.84348
       O    -6.00416   -5.44304   18.59666
      H1    -6.01058   -4.88329   19.40069
       H     4.41497   -3.02760   15.39507
       O     4.95333   -3.18601   16.18944
      H1     5.03230   -4.11821   16.17338
       H     2.52326   -3.75631   16.48585
       O     2.58883   -4.69257   16.24185
      H1     2.72884   -5.03165   17.19093
       H    -2.15851   -5.20297   18.66028
       O    -2.58087   -4.61660   19.32758
      H1    -2.29653   -4.97707   20.21657
       H    -2.55468    2.56090   15.42603
       O    -3.50809    2.48752   15.29923
      H1    -3.68119    2.44783   16.23172
       H    -1.80714   -2.57177   15.61366
       O    -1.79717   -3.11178   16.40504
      H1    -0.89146   -3.51992   16.45273
       H    -2.40660   -9.43708   18.00905
       O    -2.55883   -9.52830   17.02022
      H1    -1.69168   -9.41590   16.63868
       H     0.98512   -8.27330   15.66693
       O     0.48123   -8.74047   16.33961
      H1     0.60810   -8.13607   17.08732
       H    -5.66065   -3.07115   15.81341
       O    -6.00306   -2.64624   15.01887
      H1    -6.90180   -2.29341   15.27757
       H    -9.20277    1.67725   19.71708
       O    -8.78062    1.42568   18.82593
      H1    -9.58538    1.33262   18.29164
       H     4.62262    0.65705   17.63105
       O     4.96723   -0.18514   17.31108
      H1     5.67164   -0.32087   17.98096
       H    -3.43334   -0.06009   15.84779
       O    -3.08246   -0.18450   16.68482
      H1    -2.62465   -1.05770   16.59039
       H    -4.62308   -4.69628   17.42746
       O    -4.24585   -4.48727   16.54121
      H1    -3.38583   -3.97567   16.65492
       H    -1.47746   -2.63920   18.52443
       O    -0.97511   -2.09888   19.11273
      H1    -0.16026   -2.66361   19.15009
       H    -4.91635    0.38618   14.46829
       O    -4.69428   -0.39061   13.91671
      H1    -5.22227   -1.09029   14.36496
       H     0.54472   -0.28841   15.49218
       O     0.71850   -1.25691   15.45677
      H1     1.66175   -1.27354   15.15344
       H     3.12520   -1.88000   17.49463
       O     2.19757   -2.08786   17.69210
      H1     1.64838   -1.39044   17.24966
       H     3.95253   -1.81982   14.14220
       O     3.05576   -1.93057   14.56057
      H1     2.58464   -2.40229   13.84484
       H    -7.01219   -1.26991   18.68273
       O    -7.54118   -1.01211   17.87108
      H1    -8.12106   -0.47902   18.33372
       H    -3.59120   -8.20508   14.92457
       O    -3.46523   -7.79475   14.05453
      H1    -3.17346   -8.58829   13.57120
       H     2.09170   -4.67930   19.51287
       O     2.52920   -5.51658   19.04094
      H1     3.37429   -5.46710   19.48754

