180
frame 10 | Written by MDAnalysis XYZWriter (release 2.4.3)
       H   -17.91017   -9.75111   16.82628
       O   -17.50598   -9.59046   15.98256
      H1   -16.61785  -10.11327   15.86018
       H   -16.46498  -16.46737    7.75919
       O   -17.23131  -16.09829    7.26003
      H1   -17.02462  -15.15263    7.19275
       H   -16.62463  -16.38372    5.52103
       O   -16.39258  -16.87092    4.70149
      H1   -17.21183  -16.89186    4.22116
       H   -16.15935   -6.19169    1.60619
       O   -15.92196   -5.35964    1.98839
      H1   -16.80592   -4.99090    2.19180
       H    -9.39584  -11.47852   10.50278
       O   -10.33489  -11.46807   10.18784
      H1   -10.65572  -10.57466   10.54479
       H   -15.86646  -12.51038    8.80535
       O   -15.36791  -12.18523    9.61287
      H1   -16.02679  -12.25486   10.31852
       H   -12.30712  -15.33625    5.22851
       O   -12.19190  -15.04990    6.16007
      H1   -13.09787  -15.08690    6.44840
       H   -13.14796  -11.00265   13.36019
       O   -13.49581  -10.71939   12.51430
      H1   -14.18202  -10.00779   12.86346
       H   -15.62374   -5.69385    4.17247
       O   -15.59589   -5.20447    5.04120
      H1   -15.75691   -5.95271    5.70346
       H   -18.91986   -7.60224    0.61677
       O   -18.72140   -7.40040   -0.31567
      H1   -18.62779   -6.42536   -0.36651
       H   -10.53701   -6.64166    6.50096
       O   -11.36014   -7.11988    6.62220
      H1   -12.01976   -6.42010    6.34375
       H   -15.39371  -13.66777    7.09017
       O   -16.34731  -13.53135    7.22375
      H1   -16.72827  -13.18360    6.45532
       H   -19.54908   -5.28617    6.81889
       O   -19.43849   -6.24592    6.65808
      H1   -18.47562   -6.32478    6.81778
       H   -14.15834  -13.27413   10.66192
       O   -13.64686  -14.06232   10.69385
      H1   -13.78632  -14.36621   11.59765
       H   -18.51985   -3.08993    7.09647
       O   -19.11538   -3.44999    6.45984
      H1   -19.93612   -3.32073    6.88630
       H   -18.98075   -6.58550   11.32657
       O   -18.50937   -5.80911   11.63422
      H1   -18.15422   -6.04271   12.49779
       H   -16.64404  -10.50281    7.69153
       O   -17.43601  -10.62873    7.16977
      H1   -18.09933  -10.18518    7.76776
       H   -12.31777   -6.75199    9.77409
       O   -11.54036   -7.36671    9.67754
      H1   -11.73649   -7.70275    8.77083
       H   -16.83769   -8.25581    0.60497
       O   -15.95716   -8.55270    0.94638
      H1   -15.77438   -9.08712    0.15086
       H   -14.23609  -14.98902    9.15921
       O   -14.35235  -15.37998    8.25143
      H1   -14.42708  -16.34654    8.32805
       H   -18.31811  -11.34396   10.23631
       O   -18.38152  -10.83517   11.05530
      H1   -18.20977  -11.50924   11.63943
       H   -18.34980  -13.88766   16.48069
       O   -18.93555  -13.53916   15.76959
      H1   -18.87272  -14.21647   15.07514
       H   -15.14447  -11.94083   12.34731
       O   -15.85754  -12.53375   12.25649
      H1   -16.55935  -12.18585   12.85871
       H   -15.95377  -18.76849    8.53437
       O   -15.17378  -18.16235    8.46824
      H1   -14.58026  -18.48590    9.16468
       H   -16.93517   -9.27985    5.73727
       O   -16.27685   -8.89824    5.09650
      H1   -16.14340   -9.64049    4.45676
       H   -16.90483   -9.79172   10.64696
       O   -15.95262   -9.53211   10.49726
      H1   -15.61524  -10.38710   10.27532
       H   -16.01410   -7.49783    7.54247
       O   -16.48863   -6.67379    7.41531
      H1   -16.32452   -6.27349    8.29278
       H   -17.83378   -8.52096   14.47880
       O   -18.03267   -7.99029   13.68625
      H1   -17.16472   -7.99426   13.31069
       H   -15.13293  -17.08786   11.16840
       O   -15.93295  -17.11904   11.77197
      H1   -16.57486  -16.55503   11.27530
       H   -18.34711  -14.08059    9.78218
       O   -18.48163  -13.22270    9.37909
      H1   -17.76170  -13.21306    8.72124
       H   -10.34060  -10.83445    4.85449
       O   -10.98037  -11.58050    4.58112
      H1   -10.58021  -12.40853    4.92858
       H   -15.42707  -15.34367   12.75959
       O   -14.67646  -14.76182   13.02879
      H1   -15.13105  -13.89998   12.80822
       H   -19.00525  -10.99757    0.57843
       O   -18.66982  -11.29798    1.43990
      H1   -19.50224  -11.32772    1.97743
       H   -14.23110   -9.95949    7.40944
       O   -15.00352   -9.33024    7.32893
      H1   -15.26581   -9.34727    6.35583
       H   -13.04783  -15.01390    2.37704
       O   -13.73131  -15.29893    2.96664
      H1   -14.01896  -14.44689    3.34688
       H   -11.54966   -8.71132   11.04383
       O   -11.30692   -9.33422   11.67357
      H1   -12.11055   -9.81030   11.94692
       H   -12.43495  -11.40385    7.52594
       O   -12.88637  -11.41448    6.63748
      H1   -12.09656  -11.37249    6.07685
       H   -19.24440  -19.20031    6.06523
       O   -18.27629  -19.09882    6.06411
      H1   -18.16597  -18.13440    6.00070
       H   -14.03187  -12.77739    5.26828
       O   -14.58965  -13.37752    4.73260
      H1   -15.39238  -12.87837    4.47167
       H   -12.98452   -7.63293    2.20573
       O   -13.00823   -6.66795    2.28045
      H1   -13.92271   -6.40158    2.38286
       H   -13.25450   -4.01617    6.57262
       O   -13.08876   -4.72568    5.91097
      H1   -13.93439   -4.85987    5.38640
       H   -13.89292  -10.81972   15.21040
       O   -14.84928  -11.05802   15.19036
      H1   -14.76932  -11.99815   15.04616
       H   -18.64082   -7.48826    3.52344
       O   -17.94750   -7.74773    2.93445
      H1   -17.27176   -8.15305    3.53252
       H   -17.06524   -3.22288   11.45471
       O   -17.57385   -3.37291   10.62648
      H1   -18.11897   -4.16152   10.82532
       H   -18.15913  -15.47309   11.63951
       O   -18.01077  -15.50099   10.73233
      H1   -18.80129  -16.05859   10.43957
       H   -17.67363  -13.13287    3.50988
       O   -17.61133  -12.85832    4.45740
      H1   -18.28453  -12.23473    4.45330
       H   -12.05073   -8.48325    4.52965
       O   -12.45408   -9.13718    3.95859
      H1   -12.33266  -10.01799    4.34469
       H   -12.13269  -13.83364   11.32101
       O   -11.21012  -13.70706   11.64777
      H1   -10.81158  -13.11779   11.00127
       H   -18.26234  -12.16733   14.72635
       O   -18.04478  -11.84497   13.85837
      H1   -18.14507  -10.88010   13.94490
       H   -17.22269  -10.61310    2.49962
       O   -16.24382  -10.64007    2.60909
      H1   -16.04446   -9.76064    2.19700
       H   -18.21829   -3.34760    4.92334
       O   -17.52881   -3.45472    4.25372
      H1   -17.06128   -4.10430    4.82535
       H   -10.50210   -8.59336    7.40406
       O   -10.06494   -9.33077    7.81214
      H1    -9.30385   -8.89353    8.29275
       H   -13.22611   -5.08180   11.54087
       O   -13.12598   -5.24624   10.58053
      H1   -12.41698   -4.61838   10.27423
       H   -15.37908   -3.22036    7.54776
       O   -14.40883   -2.96387    7.55680
      H1   -14.47444   -2.07521    7.14515
       H   -14.76026   -5.19242   10.01069
       O   -15.63591   -5.26806    9.55826
      H1   -16.21956   -5.47081   10.32441
       H   -15.88166  -14.46628    0.98842
       O   -15.87552  -15.47107    1.14401
      H1   -15.04710  -15.37745    1.70291
       H   -15.15284  -12.18313    1.16963
       O   -15.83985  -12.50027    0.48938
      H1   -16.42584  -11.74394    0.40625
       H   -17.71990  -15.42701    2.17213
       O   -18.56169  -14.98413    2.41961
      H1   -18.91285  -15.55451    3.22644
       H   -19.63083  -17.61774    3.68882
       O   -19.28855  -16.85568    4.23305
      H1   -19.67649  -17.05357    5.08633
       H   -15.30036   -7.41364   12.70922
       O   -15.48641   -8.36273   12.85921
      H1   -15.75502   -8.71630   11.98981

