180
frame 10 | Written by MDAnalysis XYZWriter (release 2.4.3)
       H   -16.45465    1.56616  -10.05843
       O   -16.33878    2.40687   -9.64189
      H1   -15.89480    2.89451  -10.28410
       H   -14.74943    5.53278   -1.88947
       O   -15.26236    6.34941   -1.61031
      H1   -16.08768    6.04764   -1.31157
       H   -13.06010    8.55925  -11.21102
       O   -13.50044    8.32163  -10.35896
      H1   -12.62765    8.17169   -9.90867
       H   -18.59910   11.80307   -6.62543
       O   -17.72339   12.23966   -6.64085
      H1   -17.91479   13.18545   -6.76152
       H   -13.01702    4.77139   -8.79776
       O   -13.63451    4.62392   -8.06150
      H1   -13.29298    3.78017   -7.68331
       H   -18.49931    2.09547   -9.34168
       O   -19.38749    1.76473   -9.57964
      H1   -19.45083    0.81544   -9.42551
       H   -13.49692    1.13594   -6.55608
       O   -13.52785    2.06513   -6.84711
      H1   -13.91937    1.85511   -7.71362
       H   -15.94766    3.54631  -13.39711
       O   -16.33505    2.81858  -12.89777
      H1   -15.56610    2.32460  -12.64092
       H   -10.61173    8.72315   -2.50086
       O   -11.01280    7.77362   -2.51774
      H1   -11.83389    8.08115   -2.98138
       H   -12.84406    3.73617    3.03387
       O   -13.68808    4.04102    2.65176
      H1   -13.38359    4.68787    2.02880
       H   -13.00137    3.90849   -1.47242
       O   -12.87819    3.52060   -0.58262
      H1   -13.76232    3.30386   -0.33916
       H   -11.63771    0.31899   -1.48844
       O   -12.49625    0.69168   -1.14088
      H1   -12.33787    1.65790   -1.12248
       H   -15.39388   -4.36978   -8.37397
       O   -16.31915   -4.13485   -7.93376
      H1   -16.09532   -3.21950   -7.59030
       H   -12.57882    7.36197   -5.69249
       O   -12.11916    6.56922   -6.09083
      H1   -12.70475    6.37965   -6.87167
       H   -14.96860   12.18314   -5.59828
       O   -15.03382   12.93539   -4.97244
      H1   -15.98122   13.14615   -4.96248
       H   -18.99002   -1.64469   -1.25401
       O   -18.90492   -1.66887   -0.30953
      H1   -18.60576   -0.74090   -0.15363
       H   -14.80338    6.10149   -7.93511
       O   -14.97414    7.04432   -7.65183
      H1   -15.79532    7.23413   -8.05261
       H   -14.22619   -1.36200   -5.44363
       O   -13.97453   -0.67182   -6.09612
      H1   -13.34412   -1.19686   -6.64129
       H   -18.17967   -1.68062   -5.84810
       O   -18.89891   -2.18009   -5.43066
      H1   -18.53456   -3.07625   -5.42897
       H   -14.29824   10.29582   -1.61972
       O   -14.27999   10.25853   -0.65880
      H1   -13.74292    9.49866   -0.52293
       H   -15.70945    1.53505    0.45769
       O   -15.86758    0.59750    0.19333
      H1   -15.32732    0.01491    0.79028
       H   -17.96406    7.11589   -8.69430
       O   -18.90022    7.03201   -8.51848
      H1   -18.99111    6.47050   -7.77010
       H   -16.34465    5.09928   -5.53294
       O   -16.64955    5.93346   -5.13068
      H1   -15.80420    6.37012   -5.04733
       H   -16.69596    9.61125   -4.44133
       O   -15.87987   10.03079   -4.66617
      H1   -16.01694   10.91666   -4.27045
       H   -16.89008   11.75308   -1.92142
       O   -17.43117   11.39221   -2.62534
      H1   -17.45448   10.48236   -2.34196
       H   -17.16773   -1.18776   -7.38946
       O   -16.49642   -1.57578   -6.78286
      H1   -15.76828   -0.91877   -6.69432
       H   -17.99621    7.71739  -12.30949
       O   -18.12014    8.69990  -12.31956
      H1   -17.50088    8.86625  -11.59968
       H   -15.18893    3.52589    1.44077
       O   -15.77263    3.33457    0.69180
      H1   -16.55005    3.80308    0.90711
       H   -11.20052    5.27864   -4.98319
       O   -11.02273    4.56129   -4.40285
      H1   -10.08285    4.62422   -4.34688
       H   -18.74062    3.24269    0.97903
       O   -18.79383    4.21845    0.95886
      H1   -18.94577    4.42472    1.85981
       H   -15.16761    7.75759  -12.98226
       O   -15.23131    6.76082  -12.81373
      H1   -15.03648    6.71797  -11.87013
       H   -15.11462    2.86601   -6.04555
       O   -15.97423    3.24213   -5.74542
      H1   -15.84998    3.16999   -4.78948
       H   -17.69975   -2.36510    0.59511
       O   -16.80964   -2.67284    0.87990
      H1   -16.92739   -2.73313    1.84256
       H   -17.55198    0.74367    0.76281
       O   -18.27196    1.26881    1.22887
      H1   -17.93506    1.35180    2.12725
       H   -15.14868    0.36952   -1.37126
       O   -14.83931    0.62948   -2.24250
      H1   -13.80970    0.68539   -2.11117
       H   -16.82307    6.46000    1.09359
       O   -16.09205    6.72779    1.64493
      H1   -15.43861    6.12197    1.25617
       H   -18.54466    5.19690  -12.91220
       O   -18.22396    5.68346  -12.17679
      H1   -18.96807    5.78887  -11.62197
       H   -16.40824    5.16857    4.83109
       O   -15.85999    5.91795    4.39841
      H1   -16.02330    5.73669    3.42761
       H   -17.95925   10.65370    0.69481
       O   -17.62333   10.83388    1.60019
      H1   -17.27272   11.74390    1.53527
       H   -10.05199    3.39036   -6.48225
       O   -10.37326    2.52152   -6.86973
      H1   -11.31841    2.73406   -6.72004
       H   -18.38557   -3.74545   -2.72379
       O   -19.27795   -4.08334   -2.84517
      H1   -19.46752   -4.34189   -1.96699
       H   -16.64124    3.16920   -2.87932
       O   -16.00856    3.82215   -3.07980
      H1   -16.43825    4.63213   -3.21027
       H   -15.69344    8.46627    1.81493
       O   -15.39923    9.32031    2.14470
      H1   -16.07918    9.94159    1.74299
       H   -14.40158   -1.01167   -3.34397
       O   -14.37897   -1.86612   -3.74185
      H1   -15.20158   -2.26569   -3.49837
       H   -15.88832    9.36990   -0.74154
       O   -16.84091    9.15197   -0.87076
      H1   -16.83186    8.17435   -0.75427
       H   -17.70546    0.80446   -5.29067
       O   -17.77059    1.08468   -6.16998
      H1   -17.17140    1.84168   -6.25817
       H   -12.84324    7.42691   -0.39271
       O   -12.40722    8.32082   -0.43047
      H1   -11.79689    8.11571   -1.13995
       H   -19.49775    4.65673   -4.50073
       O   -19.32260    4.14911   -3.72441
      H1   -18.82042    3.40455   -4.05655
       H   -19.66730   -0.85761   -2.96590
       O   -18.72076   -0.83909   -2.86479
      H1   -18.54937   -1.57780   -3.46131
       H   -17.59281   11.27080   -9.32902
       O   -16.78988   11.28585   -8.83318
      H1   -17.09806   11.65606   -7.97767
       H   -12.65269    9.43506   -5.17385
       O   -13.00755    8.69915   -4.60687
      H1   -13.93292    8.90769   -4.58219
       H   -13.24939    9.90709   -8.65685
       O   -13.78505   10.05176   -7.87844
      H1   -14.24523    9.16492   -7.87154
       H   -19.21554   -1.05865   -8.61055
       O   -18.46269   -0.59386   -8.28171
      H1   -18.83165   -0.15907   -7.52843
       H   -12.55924    6.58234    1.48136
       O   -13.06358    6.03583    0.80601
      H1   -12.31076    5.48134    0.54029
       H   -16.43722   -4.09546   -2.97000
       O   -16.85213   -3.32558   -2.53341
      H1   -16.32406   -3.26261   -1.74449
       H   -12.59015    4.48415   -3.63689
       O   -13.31043    4.77450   -2.99864
      H1   -14.01398    4.18731   -3.29384
       H   -16.36588    1.15455   -3.01403
       O   -17.27106    1.36599   -3.25247
      H1   -17.73143    0.68116   -2.76168
       H   -15.72701    9.09076   -9.78514
       O   -16.65581    8.72635   -9.86775
      H1   -17.12608    9.40341   -9.25905
       H   -19.93056    6.26097   -5.67277
       O   -19.41776    5.58362   -6.10793
      H1   -18.57466    5.73765   -5.84783
       H   -18.40496    5.62286   -0.38596
       O   -18.12073    6.48607   -0.67763
      H1   -18.91728    7.04728   -0.65494

