180
frame 8 | Written by MDAnalysis XYZWriter (release 2.4.3)
       H    -0.86065    3.25364   14.24659
       O    -1.65798    3.53606   14.78015
      H1    -2.03115    4.21999   14.20982
       H    -6.33274    3.85651   10.49448
       O    -6.26090    3.92300   11.48390
      H1    -7.11495    3.52548   11.72929
       H    -5.61129    5.60550   11.25738
       O    -5.06140    6.39072   11.09688
      H1    -5.56287    7.05019   11.63456
       H     3.17110    8.68845   15.33224
       O     2.20061    8.79982   15.19092
      H1     1.99075    8.36524   14.32851
       H    -5.92057    5.53671   18.09767
       O    -6.26195    5.16598   18.91133
      H1    -5.58502    5.39147   19.65712
       H    -3.60122    4.60028   19.31531
       O    -3.54500    4.62278   18.34774
      H1    -2.58548    4.53649   18.14575
       H   -10.85818    7.28662   14.53074
       O   -10.41711    7.75088   13.75882
      H1    -9.50366    7.75859   14.11093
       H    -0.70309    3.31673   18.06441
       O    -0.91826    4.13976   17.54501
      H1    -1.27983    3.76610   16.72898
       H    -1.05313   10.63144   11.39719
       O    -0.35647   10.19702   10.87234
      H1    -0.63324    9.24665   10.99867
       H    -3.16642   11.81010   11.93171
       O    -2.21927   11.69982   12.24824
      H1    -1.75960   12.56619   12.11584
       H     2.08027   10.21354   14.25393
       O     2.08685   10.81317   13.45997
      H1     1.36179   11.41184   13.74584
       H    -2.13713    9.15921   19.23826
       O    -2.90524    9.74110   19.18900
      H1    -3.28681    9.49815   18.33930
       H    -0.93140    3.51599   10.06976
       O    -0.86876    4.10714   10.83931
      H1    -1.67047    4.63730   10.70319
       H    -2.57001    1.14281   15.81961
       O    -1.74862    0.68618   15.97883
      H1    -1.65193    0.99569   16.93071
       H   -10.39847    5.83082   18.15956
       O   -11.18087    5.35317   18.44284
      H1   -10.95327    4.41096   18.58417
       H    -9.74866    1.48743   16.44788
       O    -9.90127    2.45325   16.50988
      H1    -9.37570    2.90232   17.22506
       H    -1.86017    1.28076   12.83616
       O    -2.65136    1.14318   12.24150
      H1    -3.43547    1.12104   12.86102
       H    -3.21000    2.37097   10.80268
       O    -3.95329    2.87388   10.37115
      H1    -4.41474    3.14643   11.19686
       H     2.48412    5.54703   11.89585
       O     3.13577    4.92594   11.53476
      H1     3.27063    4.28054   12.29913
       H    -2.11884   11.49396   18.56480
       O    -1.94357   12.45994   18.65357
      H1    -1.22282   12.62429   18.02886
       H    -9.22896    3.24149   15.10210
       O    -8.40307    3.68566   14.73536
      H1    -7.81589    2.89762   14.82404
       H     0.18161    0.61342   16.10797
       O     0.98252    0.76988   16.61899
      H1     1.47015    1.49876   16.21291
       H    -6.29217   10.30512   15.18231
       O    -6.74856    9.85047   15.96443
      H1    -7.22444    9.11823   15.49376
       H    -7.38818    7.72484   14.12554
       O    -7.82357    7.66496   15.00250
      H1    -7.61308    6.80123   15.38513
       H    -9.69565   11.17286   15.62214
       O    -9.10357   11.16315   14.86938
      H1    -8.30098   10.66700   15.14259
       H    -7.03329   10.15337   19.50571
       O    -6.89303    9.29447   18.99608
      H1    -6.90857    9.65983   18.09940
       H    -0.74808    8.04436   17.26036
       O    -0.44386    8.54228   16.53511
      H1    -0.00650    7.85573   15.98158
       H    -2.17227   -1.22040   16.55766
       O    -2.84483   -1.86287   16.78631
      H1    -2.42573   -2.77250   16.79143
       H     0.39361   11.60899   16.23436
       O     0.08502   11.12809   15.47603
      H1    -0.15582   10.25154   15.83887
       H     2.91033    6.53936   15.49247
       O     3.37423    5.76289   15.10610
      H1     3.81690    5.40362   15.92251
       H    -9.84303    6.04258   12.92026
       O    -9.33137    5.69165   12.18794
      H1    -8.69296    5.17319   12.71347
       H    -2.29068   14.11094   15.76986
       O    -1.34511   14.03003   15.98916
      H1    -1.14911   13.18861   15.55431
       H    -3.12978    6.71938   11.50535
       O    -2.41033    6.54303   12.09511
      H1    -1.71582    6.49327   11.44936
       H    -8.49734    2.59113   13.01601
       O    -8.31278    2.29480   12.14791
      H1    -9.26573    2.19453   11.81652
       H     0.47649    5.24776   17.95209
       O     1.37204    5.53625   17.92192
      H1     1.74132    5.34731   18.80023
       H     2.22164    7.33479   18.48319
       O     1.98467    8.29235   18.22906
      H1     1.47219    8.18348   17.38580
       H    -5.68555   10.86497   11.28356
       O    -5.90933    9.93992   11.11377
      H1    -5.03809    9.57955   10.98052
       H    -6.17886   12.33736   14.57677
       O    -6.14314   11.53359   14.02184
      H1    -6.59899   11.81531   13.21446
       H    -0.07334    0.99836   18.20441
       O    -0.66658    1.55975   18.78315
      H1    -1.27415    0.84359   19.14732
       H    -2.69897   -1.84195   13.85258
       O    -3.60843   -1.77774   14.10870
      H1    -3.45150   -1.60258   15.06199
       H     2.90504    3.81702   16.76935
       O     2.21647    3.33470   16.30039
      H1     1.47089    4.04025   16.34311
       H    -5.91472    5.42444   15.09777
       O    -6.61962    5.35987   15.78067
      H1    -7.21997    4.73295   15.36404
       H    -6.06792    1.40138   12.90764
       O    -5.53550    0.78689   12.30087
      H1    -6.04885    0.94178   11.48937
       H    -8.72309    3.68011   19.58514
       O    -8.45646    3.54819   18.66051
      H1    -7.73612    4.18706   18.53661
       H    -4.02686    5.69085   14.61259
       O    -4.42524    5.29913   13.81193
      H1    -3.98913    5.82815   13.13300
       H    -4.88943   13.14987   18.75046
       O    -4.67554   13.03086   17.80518
      H1    -3.70378   13.00717   17.93770
       H    -4.14186    2.96069   17.09048
       O    -4.13447    2.57697   16.20782
      H1    -3.50347    3.12852   15.66058
       H     1.19425    2.70565   12.92228
       O     0.22386    2.42794   13.04936
      H1    -0.16831    2.87414   12.26519
       H    -3.41715    5.93982   17.02702
       O    -3.22771    6.46949   16.21449
      H1    -3.58290    7.41714   16.43439
       H    -7.90523   -0.19651   18.36573
       O    -7.55621   -0.40293   19.24613
      H1    -6.74140   -0.81233   18.97537
       H    -6.82398    1.15346   18.54491
       O    -6.19959    1.77577   18.12173
      H1    -6.82944    2.51440   18.07737
       H    -1.42763    6.78963   15.15416
       O    -0.85869    6.63817   14.41200
      H1    -1.42277    6.94892   13.74127
       H    -7.13298    8.48972   11.81898
       O    -7.34266    7.69240   12.31696
      H1    -7.98656    7.19929   11.78886
       H     0.68978    6.65900   13.37059
       O     1.64513    6.67435   13.06344
      H1     2.08093    6.07556   13.73498
       H    -3.16263   11.26478   14.49235
       O    -2.60893   11.56216   15.29047
      H1    -1.72127   11.39547   14.99183
       H    -5.56142    1.88541   15.36210
       O    -6.52749    1.67498   14.97171
      H1    -6.68214    0.98496   15.66311
       H    -3.36623    9.94640   16.34754
       O    -3.81595    9.16607   16.66372
      H1    -4.67557    9.47399   16.38597
       H     3.68594    2.19098   13.65310
       O     2.88012    2.73698   13.63356
      H1     2.75160    2.95439   14.62794
       H     0.87180    7.49777   10.96283
       O    -0.00789    7.41228   10.64965
      H1     0.05252    7.37654    9.63474
       H    -8.46568    6.49134   17.25047
       O    -9.18332    6.97419   17.58958
      H1    -9.16665    7.82418   17.18708

