180
frame 12 | Written by MDAnalysis XYZWriter (release 2.4.3)
       H    -4.93811    4.11032    5.75433
       O    -5.31954    4.88839    5.31447
      H1    -6.11504    4.97526    5.87218
       H    -3.80261    4.73733   12.22828
       O    -3.09625    5.27849   11.86142
      H1    -3.37701    6.17602   12.07738
       H    -3.56295   15.36038    8.35873
       O    -3.69911   15.56290    7.42976
      H1    -2.81826   15.47815    7.03445
       H     0.04462   11.86885   10.68628
       O     0.53705   12.58844   10.19698
      H1     0.85761   12.03726    9.38798
       H    -4.61294   11.24577   13.63078
       O    -3.71678   10.82258   13.64261
      H1    -3.29926   11.33136   12.95866
       H     2.67938   12.61532   12.71277
       O     3.01095   11.98602   13.39390
      H1     2.10052   11.63802   13.60995
       H     0.08798    3.11009    9.68894
       O     0.82975    3.44297   10.20937
      H1     0.51621    4.35517   10.32797
       H    -6.40045    8.68745    8.26235
       O    -5.75134    9.33732    7.86759
      H1    -6.16376   10.18167    8.02898
       H    -2.89479    8.48798    6.52500
       O    -2.75946    8.54095    5.56148
      H1    -2.78106    7.54692    5.28290
       H    -2.57411   11.97192    7.35860
       O    -1.93897   11.63949    8.04311
      H1    -1.08927   11.53511    7.58987
       H    -5.54852    5.81214    7.14434
       O    -5.36358    5.30267    7.94964
      H1    -4.41281    5.08886    7.85335
       H    -4.15810   13.15718    6.47471
       O    -3.75769   12.34782    6.12652
      H1    -4.51673   11.75192    6.18229
       H    -4.74639   14.69100   12.85936
       O    -4.15418   14.98071   13.59457
      H1    -4.08731   14.15583   14.01334
       H    -2.06808    3.38172    8.60705
       O    -2.78027    4.04733    8.70852
      H1    -2.78551    4.17853    9.66283
       H     2.95708    6.90550    3.90993
       O     2.93419    7.62062    4.58167
      H1     1.95561    7.78970    4.66679
       H    -2.79949   11.30652    1.51524
       O    -3.32821   11.08337    2.28972
      H1    -2.69274   10.82533    2.94252
       H     0.45378   12.52627    4.55547
       O     0.03347   12.29482    5.36647
      H1    -0.60666   11.62400    5.07304
       H    -7.98760    6.03717    5.87397
       O    -7.21372    6.53238    6.03550
      H1    -6.90668    6.66263    5.14705
       H    -4.26513    9.40410    5.50343
       O    -5.20713    9.59331    5.27813
      H1    -5.54659    9.52802    6.19650
       H    -6.21782   14.70929   10.57907
       O    -5.69374   14.10556   11.09127
      H1    -4.91867   13.99427   10.44274
       H    -1.68431    5.44996    2.20497
       O    -2.61312    5.46164    2.25555
      H1    -2.74662    5.72456    3.19351
       H    -2.17802   14.73584    4.82092
       O    -1.60480   14.69694    5.65165
      H1    -1.12419   13.83989    5.41000
       H     1.16439    9.77351    8.57711
       O     1.29024   10.63181    8.19409
      H1     1.78664   10.34200    7.38652
       H    -6.55000    9.57530    3.87833
       O    -7.17151    9.28920    3.19220
      H1    -7.25868    8.37459    3.42006
       H    -1.59990   10.02599   11.40187
       O    -0.79827   10.49503   11.19578
      H1    -0.09331    9.95431   11.51673
       H     5.50420    9.29701    7.95824
       O     4.60792    9.39615    8.27250
      H1     4.41804   10.29549    8.18650
       H    -8.41695   11.40557   11.41821
       O    -7.92010   12.10220   11.96512
      H1    -8.16938   12.81731   11.36707
       H    -7.29524    5.82766    3.06588
       O    -6.45030    6.29726    3.29220
      H1    -5.91952    5.62349    3.80525
       H     2.93046   12.37351    8.05579
       O     3.78631   12.82687    8.23439
      H1     3.36428   13.59077    8.57974
       H     0.30930    9.25628    2.84266
       O     0.51720    8.85776    3.70328
      H1     0.44026    7.92607    3.42581
       H    -6.35635   12.90033    8.11991
       O    -5.88459   12.00657    7.94884
      H1    -5.49925   11.87129    8.87070
       H    -3.33441    9.20071   11.98868
       O    -3.00286    8.55354   11.36388
      H1    -3.27664    9.00002   10.50961
       H    -4.28189   11.97366   10.08214
       O    -4.57399   11.07235   10.30486
      H1    -5.46898   11.22954   10.76508
       H    -6.16583   12.84628   14.74204
       O    -5.97652   12.33147   13.91674
      H1    -6.73035   12.42229   13.27364
       H    -2.51474   13.25945    9.50664
       O    -3.41882   13.38928    9.82037
      H1    -3.17351   13.26777   10.75540
       H    -2.02041    5.03094    5.04764
       O    -2.65061    5.77061    4.94678
      H1    -3.52470    5.40902    4.98921
       H    -6.51274   13.47442    4.36888
       O    -6.77821   13.39677    3.46596
      H1    -7.32632   14.17191    3.30528
       H    -7.50521    7.20627    7.71977
       O    -7.63815    7.57318    8.62471
      H1    -7.91281    6.69520    9.04488
       H     0.13312    5.38653    3.75129
       O     0.41181    6.06413    3.09039
      H1     1.24276    5.65442    2.72593
       H     0.53284    3.58260    4.80407
       O    -0.20041    4.22592    4.88468
      H1     0.10399    4.72393    5.68928
       H    -4.49473    7.46479   14.32427
       O    -5.45010    7.69933   14.28879
      H1    -5.72077    7.43498   13.37882
       H     0.33792   15.18102   12.39474
       O    -0.31638   14.68961   11.93977
      H1     0.17656   14.07553   11.45457
       H    -3.10778   13.97261   12.83474
       O    -2.71840   13.22225   12.33583
      H1    -1.78694   13.48802   12.26406
       H     0.46417    7.52834    9.62375
       O     1.02230    8.08260    9.01210
      H1     1.84508    7.56845    9.06668
       H     4.12067    6.85887   10.10455
       O     3.28302    6.60832    9.65703
      H1     3.44678    6.75651    8.73074
       H     0.47793   16.00817   10.30088
       O     0.95180   16.62902    9.69319
      H1     0.52838   16.43060    8.83035
       H    -7.36107   15.27562    8.44307
       O    -7.65022   14.35281    8.49270
      H1    -7.76993   14.29473    9.44091
       H    -0.44104   15.98166    6.18130
       O     0.25364   16.39092    6.76002
      H1     0.47069   17.18276    6.30551
       H    -2.42349    9.81785    8.41006
       O    -2.99453    9.00082    8.27673
      H1    -3.88053    9.32185    8.36496
       H    -1.55421    6.03604   14.12665
       O    -0.94319    5.61850   13.41077
      H1    -1.67142    5.38864   12.84811
       H    -8.03899    8.57074   11.78151
       O    -7.61765    7.76132   12.13615
      H1    -7.47248    7.37576   11.27536
       H    -2.74098   12.60359    3.01593
       O    -2.33700   13.47733    3.21575
      H1    -1.38261   13.35487    3.28029
       H    -1.42846    6.27169    9.60581
       O    -0.61769    6.11267   10.15915
      H1    -0.98561    6.18007   11.01534
       H    -9.73289    8.83989    6.37079
       O    -9.85723    8.43348    7.25049
      H1    -8.91394    8.45302    7.43994
       H    -2.62421   11.22991   14.78485
       O    -2.10438   11.52256   15.60333
      H1    -1.26385   11.55933   15.20626
       H     0.32342    7.28444    7.48590
       O     0.03342    6.89171    6.64149
      H1    -0.34851    7.58269    6.15354
       H     1.53818   10.30273    5.21197
       O     2.28984   10.56097    5.75075
      H1     1.89530   11.46860    5.85674
       H     2.30359    5.80129    6.79319
       O     3.21658    6.22248    6.85194
      H1     3.25258    6.78308    6.03887
       H    -2.66109   11.44429    5.04772
       O    -1.99540   10.86553    4.59375
      H1    -2.17843    9.95827    4.89004
       H     2.05957    8.96901   12.54701
       O     1.24403    8.74574   12.11003
      H1     1.53602    8.81842   11.16300

