180
frame 8 | Written by MDAnalysis XYZWriter (release 2.4.3)
       H   -15.97925   -6.73544   -2.41123
       O   -16.15637   -6.62612   -3.37450
      H1   -17.12795   -6.61458   -3.35541
       H   -11.67847   -3.60710   -3.85082
       O   -12.11282   -3.09127   -3.16562
      H1   -12.93564   -2.90591   -3.64937
       H   -17.56510   -1.64718    6.31909
       O   -16.80333   -1.61566    6.92988
      H1   -16.97319   -1.02144    7.68550
       H   -11.46672   -6.40549   -1.70246
       O   -11.78201   -7.22224   -2.13013
      H1   -10.92361   -7.71647   -2.23681
       H   -15.75073   -8.21367    2.01767
       O   -16.13557   -7.36745    2.14576
      H1   -16.87065   -7.50907    2.75943
       H   -10.80513    2.24678   -1.76031
       O   -11.31518    1.73240   -1.13071
      H1   -11.18485    0.80996   -1.42354
       H   -13.39035    3.80926   -0.51735
       O   -13.45941    3.36761    0.34077
      H1   -14.19620    3.79983    0.76163
       H   -13.30823    0.21552   -0.73011
       O   -14.22781    0.63571   -0.76502
      H1   -13.84231    1.51567   -0.62276
       H   -16.16461   -4.73879   -8.68239
       O   -16.91811   -4.23339   -8.41406
      H1   -16.57971   -3.59872   -7.78079
       H   -15.02825   -3.39170    0.16066
       O   -15.76586   -3.46488   -0.41133
      H1   -16.46199   -3.48621    0.29241
       H   -12.39113   -3.43582    1.38071
       O   -11.46964   -3.62982    1.07692
      H1   -11.18691   -3.67330    2.00355
       H   -16.30020   -7.31146    4.99350
       O   -16.03317   -6.41662    5.30492
      H1   -16.30558   -6.57976    6.20678
       H   -19.24083   -3.03707   -0.84272
       O   -19.30907   -2.23503   -0.31153
      H1   -19.48854   -1.63346   -1.07827
       H   -18.65473   -1.03425    4.56634
       O   -18.73621   -2.00809    4.67717
      H1   -19.62870   -2.27788    4.52186
       H   -19.09686   -8.46678    1.43915
       O   -19.61388   -8.44107    0.57242
      H1   -19.67594   -7.49780    0.58395
       H   -14.26996   -1.14891   -5.90592
       O   -14.19291   -0.73400   -6.80006
      H1   -13.42432   -1.29527   -7.01693
       H   -13.65084   -8.18198   -1.50798
       O   -14.30397   -8.74476   -1.98046
      H1   -13.68589   -9.48182   -2.04694
       H   -17.82198   -5.47591   -7.40559
       O   -18.30262   -6.08115   -6.80580
      H1   -19.24648   -5.80937   -7.03082
       H   -18.05289   -2.52899   -5.57376
       O   -18.47525   -2.96117   -4.81410
      H1   -17.76347   -3.36419   -4.32910
       H   -11.37847    0.88817    0.80675
       O   -11.52198    0.34196    1.58737
      H1   -11.00102   -0.44192    1.32406
       H   -18.46757   -4.48111    7.76014
       O   -19.43704   -4.60737    7.63874
      H1   -19.67372   -3.78771    8.04756
       H   -12.88029   -7.96736   -3.57975
       O   -12.88854   -8.28100   -4.50988
      H1   -13.81343   -8.17875   -4.71953
       H   -15.52429  -10.07889    0.55012
       O   -14.80440   -9.46387    0.76390
      H1   -14.60734   -9.09172   -0.08450
       H   -17.38724    0.03638    0.15854
       O   -17.12877    0.90169    0.45403
      H1   -16.30723    0.73218    0.96259
       H   -17.18648  -10.61478   -6.39412
       O   -16.67203  -10.47818   -5.61009
      H1   -17.28630  -10.22635   -4.90384
       H   -14.64812   -2.60000    2.72562
       O   -13.93707   -2.22978    2.09740
      H1   -14.25190   -1.44361    1.71682
       H   -16.09619   -9.27386   -8.43062
       O   -15.93141   -8.34242   -8.28457
      H1   -16.14211   -8.22298   -7.28241
       H   -17.05488   -9.29189    5.94792
       O   -16.60869   -9.10874    5.12779
      H1   -16.26161   -9.91798    4.77271
       H   -16.97787   -1.46373   -7.54417
       O   -16.51627   -2.06683   -6.87461
      H1   -15.56404   -1.71401   -6.90855
       H   -14.52716    0.74678    0.96179
       O   -14.91938    0.61681    1.86769
      H1   -14.38424    1.23967    2.40617
       H   -16.74123    3.21249    2.12834
       O   -16.36123    3.56965    1.36365
      H1   -16.47706    2.84079    0.73333
       H   -18.17912  -10.49701   -1.47537
       O   -18.87918  -10.92667   -1.00013
      H1   -19.23762  -10.25100   -0.45197
       H   -15.66129    2.66063   -6.66133
       O   -16.51977    2.91231   -6.31426
      H1   -16.21559    3.11556   -5.44049
       H   -17.81824  -11.28806    0.32793
       O   -17.10304  -10.87373    0.91968
      H1   -17.37295  -11.24099    1.79790
       H   -18.45249   -2.84788    1.86477
       O   -17.90067   -3.62854    1.86888
      H1   -17.64621   -3.69404    2.78514
       H   -18.76477    1.63232    0.84474
       O   -19.41031    1.82969    1.57600
      H1   -19.04457    1.44922    2.36242
       H   -15.99748   -1.40896   -1.76922
       O   -16.17898   -0.52267   -2.11886
      H1   -15.46749    0.08125   -1.75445
       H   -18.55942    1.07940    4.51501
       O   -17.98733    0.64940    3.80037
      H1   -17.16586    0.45006    4.25829
       H   -12.64809   -7.41693    3.14708
       O   -13.09858   -6.67405    2.74084
      H1   -13.98483   -6.88874    3.07714
       H   -12.93307   -1.09076    3.90300
       O   -12.68002   -0.26401    4.42576
      H1   -13.62944   -0.05087    4.68975
       H   -17.64498   -7.44300   -0.58358
       O   -16.73881   -6.98595   -0.52417
      H1   -16.73076   -7.01632    0.43580
       H   -11.85537   -5.49150    3.24288
       O   -11.49768   -4.74918    3.79135
      H1   -12.02482   -4.88681    4.60724
       H   -18.97216   -7.36749    3.94559
       O   -18.71160   -8.02205    3.24141
      H1   -18.57579   -8.76334    3.81669
       H   -17.60173   -4.65780   -1.73254
       O   -18.59889   -4.66773   -1.63994
      H1   -18.74331   -5.14843   -0.78803
       H   -16.65230    2.93807   -3.37293
       O   -16.00313    3.56273   -3.60061
      H1   -16.44422    4.43534   -3.64317
       H   -19.22222   -7.25482   -4.27208
       O   -18.99182   -6.98422   -3.36176
      H1   -19.25010   -6.06559   -3.33558
       H   -14.89579   -1.00209   -3.61364
       O   -14.34567   -1.66060   -4.03628
      H1   -14.84139   -2.52094   -3.96237
       H   -19.45138    0.47657    8.43994
       O   -19.13652   -0.05225    7.69634
      H1   -19.91071   -0.59488    7.59830
       H   -18.43690    0.65867   -4.96131
       O   -18.60346    0.94071   -5.93051
      H1   -17.78286    1.43306   -5.98970
       H   -12.78664   -6.09545   -6.71965
       O   -13.76900   -6.12328   -6.76899
      H1   -14.00813   -7.02611   -6.98838
       H   -11.24545   -4.16973   -1.54514
       O   -10.80583   -4.90140   -1.13093
      H1   -10.99853   -4.68274   -0.22895
       H   -17.07458   -3.51794    4.64876
       O   -16.37706   -3.95573    4.15918
      H1   -16.19199   -4.77643    4.69162
       H   -17.42064   -8.70053   -2.67950
       O   -17.20779   -9.60396   -2.80948
      H1   -16.28814   -9.70118   -2.57465
       H   -15.14455   -2.69001    7.06107
       O   -14.19191   -3.06569    7.06281
      H1   -13.56744   -2.42305    7.31623
       H   -19.07692   -0.98535   -8.66442
       O   -18.31520   -0.66331   -8.16573
      H1   -18.65897   -0.38627   -7.25771
       H   -15.56334   -5.03795   -3.34087
       O   -15.86583   -4.15748   -3.10975
      H1   -15.58595   -4.11893   -2.16351
       H   -10.97587   -1.42861   -1.18818
       O   -11.64277   -0.93917   -1.75551
      H1   -11.83879   -1.68659   -2.32943
       H   -17.59971    1.05733   -2.63017
       O   -18.24829    1.39788   -3.23934
      H1   -19.01603    1.07142   -2.70028
       H   -15.53206   -7.69333   -4.83572
       O   -15.32211   -8.20305   -5.67660
      H1   -15.82597   -8.97099   -5.51670
       H   -16.03664   -1.35621    4.46293
       O   -15.70065   -0.60039    4.87224
      H1   -16.08541   -0.79033    5.76717

