180
frame 5 | Written by MDAnalysis XYZWriter (release 2.4.3)
       H   -10.21820   10.02004  -11.74074
       O    -9.53155    9.58925  -12.27144
      H1    -9.89979    8.70889  -12.40012
       H   -19.75381    0.71975   -9.33734
       O   -19.15761    1.28699   -8.85483
      H1   -18.70802    0.67686   -8.25428
       H    -7.10996    6.36043   -8.22348
       O    -7.90278    6.45782   -7.62976
      H1    -8.58875    6.00232   -8.13767
       H   -13.98691    2.21059   -6.55262
       O   -13.32633    1.53278   -6.39722
      H1   -12.54872    1.80479   -6.91636
       H   -10.12768   -1.40265  -11.20298
       O   -10.30945   -0.54196  -11.60553
      H1   -10.99983   -0.56108  -12.24362
       H   -10.48487    4.66735   -7.87767
       O   -10.15196    5.18329   -8.63005
      H1    -9.83009    4.50133   -9.21518
       H   -17.55252    0.86766  -15.02879
       O   -17.21802    1.26038  -14.17503
      H1   -17.06399    2.18831  -14.44152
       H   -11.40232    7.30159  -18.12207
       O   -10.65780    6.70184  -17.89906
      H1   -10.07045    6.97049  -18.60337
       H   -11.73925    3.85116   -5.69181
       O   -11.01330    4.29629   -6.13189
      H1   -10.91789    5.17263   -5.72200
       H   -15.64326    0.38086  -13.46292
       O   -15.09988   -0.04813  -12.79427
      H1   -14.26637   -0.29188  -13.19198
       H    -8.73289   10.11595   -8.99858
       O    -9.11059    9.28135   -9.34743
      H1    -9.80155    9.05122   -8.69769
       H   -17.32396    4.03076   -9.83478
       O   -17.38146    3.23516  -10.32731
      H1   -17.81285    2.69387   -9.66761
       H   -14.54651    1.11478  -16.33313
       O   -15.05758    1.78561  -16.84461
      H1   -15.51652    2.20259  -16.07186
       H   -15.39038   -2.54671  -12.22233
       O   -14.50893   -2.96518  -11.97031
      H1   -14.77561   -3.86697  -11.76926
       H   -15.67100    6.37508  -17.44057
       O   -15.64911    5.37605  -17.31658
      H1   -14.80932    4.98985  -17.66778
       H   -10.65593    4.47819  -18.87396
       O   -11.19886    3.73825  -19.14901
      H1   -12.03147    3.97804  -18.64693
       H   -15.04564   -1.17938   -8.78203
       O   -14.90887   -2.02075   -9.28647
      H1   -14.77277   -1.71175  -10.18807
       H   -12.89404    7.74495  -16.55191
       O   -12.98646    8.05973  -17.44124
      H1   -13.22139    8.96697  -17.31504
       H   -15.10094    1.18128  -11.31863
       O   -15.24937    1.86949  -10.63632
      H1   -16.09830    2.37114  -10.69109
       H   -13.93605    9.02962   -9.15122
       O   -13.34986    8.87200   -9.88392
      H1   -12.68535    9.62006   -9.89368
       H   -12.02117    2.25770  -10.77623
       O   -12.06610    1.30845  -10.51071
      H1   -11.21278    0.92330  -10.79144
       H   -10.92037   11.05722   -9.57199
       O   -11.71468   10.91329  -10.07803
      H1   -12.16139   11.71576   -9.88290
       H   -10.73565    6.73995  -12.04843
       O   -10.42919    7.01103  -12.93574
      H1    -9.77668    6.32901  -13.15541
       H   -13.14916   -2.35277  -12.87520
       O   -12.33389   -2.01395  -13.31116
      H1   -12.58285   -1.28367  -13.88864
       H   -12.61842    5.16783  -10.59727
       O   -12.61692    4.31829  -11.13850
      H1   -13.32415    4.43511  -11.77283
       H    -7.78719    0.75686  -12.77943
       O    -8.04808   -0.13486  -12.93601
      H1    -8.89520   -0.28718  -12.46428
       H    -7.10347    3.29055   -9.06341
       O    -6.92353    2.84618   -8.21208
      H1    -7.19109    3.39149   -7.49518
       H   -16.94787    6.32722  -12.78649
       O   -16.24900    6.18662  -12.13461
      H1   -15.47366    6.72274  -12.29327
       H   -14.90756    6.81871   -7.43924
       O   -15.71356    7.41094   -7.42184
      H1   -16.24723    6.90268   -8.08538
       H   -13.03870    6.52310   -6.57417
       O   -13.30677    6.22877   -7.46203
      H1   -12.62249    6.75975   -7.93936
       H   -11.29792    3.90651  -12.30130
       O   -10.56789    3.40237  -12.71257
      H1   -10.02069    4.14054  -13.14525
       H   -10.05217   10.07557  -14.23715
       O   -10.42130    9.66048  -15.03043
      H1   -11.18373    9.15393  -14.73035
       H   -15.47868    3.82475   -5.76332
       O   -14.89442    3.70562   -6.52948
      H1   -14.35308    4.46023   -6.69477
       H    -9.63935    3.12167  -11.23644
       O    -9.21233    3.16036  -10.36216
      H1    -9.93151    2.80545   -9.76288
       H   -12.02252    7.44488  -10.16051
       O   -11.36067    6.75238  -10.43223
      H1   -11.08784    6.36338   -9.58179
       H   -17.02338    7.80845  -16.50531
       O   -16.17479    8.23541  -16.70692
      H1   -16.05084    8.72599  -15.83388
       H   -10.38533    3.10659  -17.60920
       O    -9.76753    2.96795  -16.89141
      H1   -10.43310    2.49181  -16.33742
       H   -17.23397    1.22641   -5.68176
       O   -17.35589    0.71227   -6.55252
      H1   -16.55766    0.82468   -7.05153
       H   -18.21065    3.87365  -11.85736
       O   -18.95912    4.25839  -12.31304
      H1   -19.30687    3.43788  -12.74220
       H   -15.05716    0.97597   -9.26817
       O   -15.17239    0.52037   -8.38577
      H1   -14.25431    0.53321   -8.00712
       H   -16.87070    6.27223  -10.30374
       O   -17.15804    6.12588   -9.37776
      H1   -18.08723    6.17311   -9.35251
       H   -15.13756   10.53503  -14.97504
       O   -15.67062    9.82053  -14.49539
      H1   -16.40915   10.33338  -14.14496
       H   -15.35098    4.75748  -12.38626
       O   -14.85788    3.95464  -12.68568
      H1   -15.01284    3.32470  -12.00642
       H   -10.54766    0.83485  -14.92080
       O   -11.11996    1.60733  -14.99191
      H1   -10.82236    2.17293  -14.24872
       H    -6.98034    4.59293  -16.23460
       O    -7.34676    3.82890  -15.78466
      H1    -8.15012    3.52661  -16.31756
       H    -9.09290    8.17546  -14.95397
       O    -8.58252    7.47984  -15.38683
      H1    -9.17317    6.81798  -15.81962
       H   -11.52249    8.66229   -7.25209
       O   -10.90287    8.04711   -7.69824
      H1   -10.37878    7.55104   -7.00215
       H   -13.99311    3.68210  -19.07695
       O   -13.79200    3.81640  -18.12500
      H1   -14.09030    3.02549  -17.69598
       H   -18.35336    4.54137  -16.10751
       O   -18.24594    4.37490  -17.02146
      H1   -17.38977    4.83046  -17.23466
       H    -6.73669    7.10911  -10.07227
       O    -6.85869    8.02756  -10.25286
      H1    -7.74411    8.37560   -9.99158
       H   -12.84102   -0.67716  -15.64312
       O   -13.20106   -0.03545  -15.02599
      H1   -12.50475    0.67387  -15.02190
       H   -17.08571    9.72139  -11.04187
       O   -17.85393    9.52944  -11.60553
      H1   -18.65456    9.65074  -10.99153
       H   -13.13952    7.88223  -13.79714
       O   -12.45659    7.59560  -14.44392
      H1   -11.63789    7.37862  -13.92296
       H   -15.76508    4.38309  -15.88971
       O   -16.17212    3.94090  -15.13446
      H1   -15.67147    4.18911  -14.35993
       H   -14.06250    8.82914  -11.82499
       O   -14.50964    8.45926  -12.56926
      H1   -14.90157    9.19116  -13.08804
       H    -7.66395    2.78789  -12.30021
       O    -6.88056    2.23610  -12.50211
      H1    -6.70520    2.28733  -13.43840
       H   -19.01942    7.15569  -13.43846
       O   -18.18467    7.57853  -13.61333
      H1   -18.02866    8.22762  -12.90842
       H   -11.71041    1.93533   -8.62997
       O   -10.97559    2.02084   -7.99405
      H1   -10.62951    1.10926   -7.83945
       H    -8.29209    4.83199  -14.30277
       O    -8.64813    5.16385  -13.45609
      H1    -8.03244    5.77304  -13.01771
       H   -15.03505    9.30343   -7.50830
       O   -14.78554   10.25914   -7.55258
      H1   -15.50030   10.66138   -8.02855

