180
frame 8 | Written by MDAnalysis XYZWriter (release 2.4.3)
       H     0.48892   14.96580  -12.18231
       O     0.59354   15.96001  -12.15081
      H1     0.85596   16.14159  -13.09791
       H    -3.42692   17.75477  -12.53536
       O    -4.29304   18.25609  -12.47341
      H1    -4.30781   18.66915  -13.33992
       H    -5.23958   18.17538   -8.37051
       O    -4.24958   18.13866   -8.42950
      H1    -3.78665   18.57479   -7.64766
       H    -3.20293   14.40100  -14.72436
       O    -2.52937   13.80662  -15.06811
      H1    -2.80882   12.98524  -14.64040
       H    -2.71599    8.54636  -13.47503
       O    -2.20623    9.04541  -12.84344
      H1    -2.93289    9.59763  -12.45544
       H    -9.74392   18.58954  -18.43065
       O    -9.95674   19.27703  -19.12431
      H1   -10.86076   19.01588  -19.38796
       H   -10.04357   13.88810  -15.35112
       O   -10.33632   13.60985  -16.25403
      H1   -11.30067   13.80827  -16.30920
       H    -6.22468   16.93288  -18.39128
       O    -6.57777   16.69720  -17.51131
      H1    -7.17041   17.46023  -17.35892
       H    -4.53051    7.37349  -14.46607
       O    -3.98237    8.08483  -14.65457
      H1    -4.61052    8.73438  -14.96483
       H     2.20183   16.64173  -11.26125
       O     2.87237   17.36500  -11.37458
      H1     2.23923   18.03906  -11.72877
       H    -1.15298   17.20367  -16.08208
       O    -1.76277   16.73016  -15.45168
      H1    -1.53282   15.82528  -15.48929
       H    -4.80557   16.02165  -11.99952
       O    -5.58822   15.49808  -12.30133
      H1    -5.90274   15.99707  -13.09095
       H     2.13434   15.09998  -18.83133
       O     1.72022   15.13750  -17.99334
      H1     2.08023   15.96543  -17.59898
       H    -0.37081   11.05626  -18.75076
       O    -0.41223   11.82204  -18.16304
      H1    -1.41829   11.92286  -18.11612
       H    -6.42395   11.31112  -10.00582
       O    -6.59247   12.11390  -10.56734
      H1    -6.78028   11.83431  -11.47715
       H    -4.65524    9.83135  -17.17864
       O    -4.84862   10.37625  -16.35648
      H1    -5.75770   10.00490  -16.23604
       H     2.34484   12.39124  -15.94553
       O     1.48224   12.04317  -16.11709
      H1     1.15929   12.44238  -16.92768
       H    -6.98585   19.18506   -8.23793
       O    -7.05174   18.24504   -8.39312
      H1    -7.35535   18.30968   -9.28220
       H    -8.02315   11.58210  -15.86789
       O    -8.83453   11.45430  -16.32153
      H1    -9.35326   12.28942  -16.17171
       H    -4.23216   13.93267  -18.48036
       O    -5.20869   13.74131  -18.63692
      H1    -5.38178   12.86306  -18.30905
       H     1.52821    9.78589  -11.73826
       O     1.16859   10.50506  -12.26466
      H1     1.04152   11.29490  -11.70469
       H    -1.60951   12.29560  -10.58005
       O    -1.03481   11.94584   -9.86149
      H1    -0.68371   12.80529   -9.50928
       H    -3.31072   16.89309   -9.05709
       O    -2.65831   16.26043   -9.37994
      H1    -3.22778   15.51244   -9.56323
       H    -9.33111   15.12622  -10.47739
       O    -9.28500   14.18309  -10.70911
      H1    -8.37349   13.87552  -10.53552
       H     0.51065   19.26493  -16.04577
       O     0.06804   18.77787  -16.78947
      H1     0.90378   18.39350  -17.13179
       H    -8.71531   19.21802  -15.65551
       O    -7.98958   18.67588  -16.01289
      H1    -7.71069   18.06958  -15.28634
       H    -9.11530   14.05520  -12.97339
       O    -8.89046   13.69915  -13.82338
      H1    -7.97438   14.00735  -13.98222
       H    -9.77838   17.01594  -16.79185
       O   -10.45081   17.27160  -17.43344
      H1   -10.55359   16.53468  -18.04401
       H    -0.43940   19.03607  -10.19513
       O    -0.06078   18.60499   -9.43050
      H1     0.63406   19.24966   -9.18579
       H    -5.09637   13.97006   -9.65081
       O    -4.07456   13.94637   -9.72619
      H1    -3.94102   13.60157   -8.79890
       H     0.08729   14.78492  -18.48980
       O    -0.76318   14.79185  -19.01220
      H1    -0.76729   13.86738  -19.43768
       H    -7.00426   15.73311   -9.12235
       O    -6.73911   14.98024   -9.62897
      H1    -6.55536   15.37140  -10.48140
       H    -5.78253   14.55394  -15.23479
       O    -6.41512   13.81757  -15.39023
      H1    -6.55084   13.97982  -16.35727
       H    -0.52499   13.06550  -12.03821
       O     0.46116   13.18331  -12.29626
      H1     0.25304   13.24471  -13.24091
       H   -11.77512   19.01861  -14.05121
       O   -10.88939   19.00008  -13.79895
      H1   -10.64772   19.95576  -13.82760
       H    -1.00039   16.36343  -11.83314
       O    -1.98838   16.59286  -11.93774
      H1    -2.29092   16.43683  -11.02884
       H     0.33258   11.30318  -15.14756
       O    -0.31532   10.73906  -14.68542
      H1    -0.07490   10.77078  -13.73813
       H    -3.07163   12.38680  -12.67793
       O    -2.56028   12.95954  -12.03246
      H1    -3.22004   13.01225  -11.33368
       H    -9.52026   14.92983  -18.66242
       O   -10.37133   15.09050  -19.04357
      H1   -10.18944   15.50443  -19.90465
       H     0.44728   17.78165  -14.74922
       O     1.26992   17.49293  -14.41960
      H1     1.62669   18.30615  -13.98702
       H    -6.42488   12.01329  -14.18649
       O    -6.33066   11.18993  -13.69565
      H1    -5.42765   11.16804  -13.43288
       H    -2.28922   10.85110  -14.44738
       O    -3.17992   11.34951  -14.44227
      H1    -3.71537   10.79129  -15.10590
       H    -7.69818   11.51674  -18.02797
       O    -6.97338   11.45450  -18.66994
      H1    -6.98926   12.34475  -19.02167
       H    -1.09904   18.39435  -12.01938
       O    -0.71647   19.27246  -12.16757
      H1    -1.47816   19.89492  -12.22249
       H   -10.01651   17.49277  -13.35603
       O   -10.01112   16.54844  -13.07319
      H1   -10.18020   16.55382  -12.11301
       H     3.91096   13.40522  -14.70781
       O     4.00131   12.99004  -15.58132
      H1     4.33797   13.76859  -16.08021
       H    -4.57087   10.92609  -10.97202
       O    -4.52586   10.16471  -11.49620
      H1    -4.60414    9.42765  -10.86626
       H     1.92528    9.65102  -17.58022
       O     1.13949    9.27366  -17.19252
      H1     1.11135    9.97359  -16.57164
       H     2.34053   17.53599  -15.87288
       O     2.63931   17.38675  -16.77450
      H1     3.55993   17.72458  -16.70535
       H    -7.07613   17.28296  -12.78351
       O    -7.25904   16.96250  -13.72167
      H1    -8.18382   16.63866  -13.57793
       H     4.30721   15.04207  -13.43414
       O     3.86640   14.27681  -13.03838
      H1     2.99031   14.54086  -12.69101
       H    -5.67839    8.67774  -18.90042
       O    -4.85333    8.52568  -18.44073
      H1    -4.18716    8.93865  -19.02283
       H    -5.02726   16.41694  -16.32978
       O    -4.34628   15.84470  -15.90312
      H1    -3.50549   16.29749  -15.98732
       H    -1.87654   13.92901  -17.90351
       O    -2.63156   13.33381  -17.63605
      H1    -2.69668   13.43605  -16.65241
       H    -2.94269   19.84331  -15.38800
       O    -3.39296   19.01599  -15.13467
      H1    -2.84429   18.32921  -15.53826
       H    -7.41395   15.25955  -17.63559
       O    -7.94333   14.48604  -17.97444
      H1    -7.63636   14.42759  -18.90604
       H    -0.56457   14.03749  -15.09210
       O     0.30058   14.47197  -15.07450
      H1     0.81527   13.99458  -15.75402
       H    -2.83740   17.85987  -19.00443
       O    -3.27566   17.00366  -18.83570
      H1    -2.67413   16.27109  -19.03816
       H    -7.22768   19.60944  -11.52305
       O    -6.88402   18.70560  -11.40144
      H1    -5.96042   18.81352  -11.56335
       H   -10.16358   12.98259  -18.37017
       O   -10.32462   12.17398  -18.83453
      H1   -10.65980   12.55010  -19.69574

