180
frame 9 | Written by MDAnalysis XYZWriter (release 2.4.3)
       H     3.43833  -11.36535   18.41177
       O     4.09671  -10.61585   18.42783
      H1     3.89507  -10.36066   19.38541
       H    -0.29979  -13.33859   18.67611
       O    -0.04695  -12.66483   19.32770
      H1     0.07670  -11.89238   18.69317
       H    -9.45431  -17.16222   13.99539
       O    -9.21103  -17.73617   14.75416
      H1    -8.24805  -17.85598   14.70592
       H     3.70616  -16.82702   16.56226
       O     3.49021  -17.41529   15.79174
      H1     2.76461  -16.96170   15.38327
       H     1.47684   -9.78884   14.03150
       O     0.85211   -9.01962   13.88603
      H1     0.30051   -9.33144   13.13671
       H     8.31339  -18.19374   12.59348
       O     8.41042  -18.10871   13.52476
      H1     7.58210  -18.65844   13.75059
       H    -1.31569  -15.74752    8.99683
       O    -1.45719  -15.17336    8.28607
      H1    -2.40790  -15.15096    8.06304
       H    -6.44106  -11.55011   14.97741
       O    -5.61700  -11.39993   15.42329
      H1    -5.05022  -11.26630   14.62864
       H    -5.49314  -16.73484    9.76763
       O    -6.20714  -17.35606    9.87896
      H1    -6.87063  -16.94153    9.36288
       H     3.08377  -18.04920   11.82445
       O     2.19555  -18.27084   12.05970
      H1     2.09574  -19.15018   11.67629
       H     2.12286  -16.08107   13.29236
       O     1.65599  -16.43024   14.12771
      H1     1.57222  -17.39375   13.86929
       H    -5.50903  -12.84154   11.95879
       O    -4.91924  -13.55939   12.11985
      H1    -4.08206  -13.13950   12.30091
       H    -3.26894  -10.91807   12.91040
       O    -3.96994  -10.60491   13.48503
      H1    -3.71898   -9.73350   13.75909
       H    -8.04189  -16.95122   12.29280
       O    -8.83296  -16.38288   12.21363
      H1    -9.23384  -16.62350   11.35780
       H    -2.62810  -11.97963   17.44496
       O    -2.64250  -11.80774   16.46167
      H1    -2.92200  -10.90456   16.43131
       H    -2.29714  -18.63766   11.20277
       O    -1.85116  -18.21778   10.45086
      H1    -2.27205  -18.73882    9.72834
       H    -4.66793  -18.14260    7.22099
       O    -4.57409  -18.80306    7.97324
      H1    -5.28922  -18.56253    8.56377
       H     6.31252  -12.94117   13.43835
       O     6.41856  -12.33080   12.67045
      H1     6.36557  -13.05274   11.90850
       H    -1.70605  -12.67706   11.81236
       O    -2.26861  -11.87183   11.87036
      H1    -1.55241  -11.17794   11.94702
       H     4.37884  -18.06166    7.95196
       O     3.50150  -17.84875    8.35758
      H1     3.77357  -17.72238    9.30634
       H    -5.76385  -13.83346   17.48339
       O    -5.88088  -12.93517   17.90063
      H1    -5.82166  -12.34588   17.10131
       H     5.78423  -18.40443   14.51795
       O     6.17449  -19.31213   14.60310
      H1     6.78010  -19.20895   15.36814
       H     0.87519  -17.10767   17.14097
       O     1.09018  -16.26698   17.57746
      H1     0.23523  -15.82914   17.56431
       H    -3.28067  -16.75244    9.68145
       O    -3.81066  -16.05183   10.12258
      H1    -3.08770  -15.50001   10.46159
       H     2.96893  -13.11378   19.49223
       O     2.56401  -12.82536   18.69152
      H1     1.63405  -12.74889   18.90962
       H    -0.41064  -17.07298   10.82438
       O     0.40449  -16.57628   11.02058
      H1     1.03593  -17.22388   11.36563
       H    -2.02970  -15.36675   18.48260
       O    -1.48911  -14.88632   17.81730
      H1    -2.06761  -14.75282   17.08139
       H     6.95941  -18.93604   17.17546
       O     7.62916  -18.43496   16.64350
      H1     7.22840  -17.56529   16.55226
       H     3.27850  -13.00166   13.29183
       O     3.20559  -12.52125   14.17904
      H1     2.94607  -13.22542   14.83095
       H    -4.16430  -14.63076   15.85932
       O    -3.41420  -14.16886   15.37434
      H1    -3.67121  -13.25010   15.60342
       H     5.19061  -10.41057   15.82103
       O     5.77844  -10.94227   16.41780
      H1     5.34174  -11.06400   17.29068
       H    -6.12341  -14.69033   13.48853
       O    -6.91597  -14.76575   14.06119
      H1    -7.61945  -15.01035   13.45683
       H     7.83899  -19.21171   10.37414
       O     7.59121  -18.36648   10.80758
      H1     6.62188  -18.33253   10.83098
       H     3.94394   -9.42405   13.90650
       O     3.74308   -9.93586   14.68281
      H1     3.61460  -10.84671   14.30417
       H     2.67041  -13.72722   17.10797
       O     2.32528  -13.99238   16.20385
      H1     1.87050  -14.89134   16.39948
       H     3.93511  -14.79818   11.75701
       O     2.98830  -15.01665   11.96442
      H1     2.48848  -14.84758   11.17368
       H    -2.62928  -10.95105   19.55846
       O    -2.68761  -11.87377   19.33315
      H1    -1.74724  -12.05093   19.21671
       H     1.04694  -19.14635   16.70810
       O     0.22017  -18.79471   16.28823
      H1    -0.38264  -18.91817   17.04946
       H    -3.75969  -15.60176   13.86009
       O    -3.53185  -16.40914   13.40185
      H1    -4.02080  -16.15210   12.56625
       H    -5.18404  -19.10573   17.87439
       O    -5.88731  -19.38357   18.42368
      H1    -6.04638  -18.53120   18.81369
       H    -0.49734  -12.00318   15.00132
       O     0.33883  -11.63574   14.77954
      H1     0.93922  -12.39499   14.96868
       H    -8.79687  -14.96841   15.90450
       O    -9.61879  -15.32899   16.18983
      H1    -9.54406  -16.19722   15.78001
       H     6.19854  -12.89078   19.48295
       O     6.76975  -12.33487   18.92651
      H1     7.54513  -12.94365   18.94713
       H    -0.37310   -9.30875   16.59398
       O    -0.87785   -8.77421   15.93769
      H1    -0.30298   -8.86649   15.13596
       H     0.60280  -11.11843   16.35621
       O     0.50383  -10.83282   17.29272
      H1     1.41360  -10.49020   17.38544
       H     5.07204  -15.81006   17.54792
       O     4.29690  -16.04004   18.22227
      H1     3.49898  -15.65926   17.78109
       H    -6.46976  -17.30451   14.55174
       O    -6.54837  -17.62445   15.45701
      H1    -5.97496  -18.41039   15.42541
       H     5.15136  -18.93110   11.52184
       O     4.90852  -18.20498   10.98138
      H1     5.02713  -17.50140   11.68650
       H    -6.76848  -18.50323   12.45851
       O    -6.61316  -17.59957   12.73647
      H1    -6.44239  -17.11285   11.88717
       H    -2.45372  -17.45930   19.53228
       O    -3.04831  -16.90086   19.00373
      H1    -3.85228  -16.98584   19.53226
       H     5.83771  -16.24937   13.42570
       O     5.12109  -16.85982   13.37373
      H1     4.38539  -16.35291   13.72930
       H     8.17196  -15.51342   19.47958
       O     8.47285  -14.74206   18.98775
      H1     9.41299  -14.83805   19.01440
       H    -3.59379  -18.48486   13.13418
       O    -3.02760  -19.18840   12.73713
      H1    -3.70424  -19.87043   12.43882
       H     4.62141  -13.23159   14.83019
       O     5.58868  -13.30665   15.03966
      H1     5.74495  -12.43988   15.54905
       H    -4.41556  -17.06363   16.39242
       O    -3.95487  -17.88777   16.75187
      H1    -3.62643  -17.55338   17.60464
       H    -6.12015  -15.93801   16.43686
       O    -5.39191  -15.67635   17.06444
      H1    -5.64679  -15.98517   17.91739
       H     7.14834  -15.26823   17.42707
       O     6.44663  -15.46941   16.79351
      H1     6.27480  -14.62597   16.25136
       H    10.62963  -18.15163   17.68751
       O     9.97800  -18.74114   18.11522
      H1     9.10739  -18.58142   17.72099
       H    -2.00494  -15.34720   12.63530
       O    -1.76252  -14.79312   11.90320
      H1    -0.86981  -15.18739   11.72778
       H     7.95518  -15.06031   14.36540
       O     7.62032  -15.45458   13.53898
      H1     7.91386  -16.34561   13.67465

