180
frame 9 | Written by MDAnalysis XYZWriter (release 2.4.3)
       H    11.31636  -13.16112   -4.33512
       O    10.66982  -13.21856   -5.04373
      H1    10.52311  -12.31237   -5.28748
       H     5.66883   -4.71160   -2.21803
       O     5.41858   -5.59871   -2.53021
      H1     4.57598   -5.33998   -2.91738
       H     8.75760   -9.57916   -3.27330
       O     8.38656   -9.90151   -2.40954
      H1     7.46384   -9.90413   -2.55467
       H    12.54207   -9.60684   -6.88563
       O    13.13999  -10.13473   -6.32159
      H1    13.21326   -9.59674   -5.54177
       H    15.60692   -5.27789   -4.07782
       O    16.05143   -4.56462   -3.57440
      H1    16.78617   -5.06909   -3.19159
       H    12.89479   -4.58764   -3.70648
       O    12.78965   -5.07435   -4.56357
      H1    12.16430   -5.78436   -4.30576
       H     5.54128   -5.72213   -9.21124
       O     6.24878   -5.53455   -9.82432
      H1     5.86441   -5.21595  -10.61977
       H     6.96007   -6.01849   -3.49722
       O     7.75476   -5.92165   -4.08354
      H1     7.46879   -6.55344   -4.74674
       H    13.13104  -10.70121   -1.45378
       O    12.44773  -10.51125   -2.11940
      H1    11.68483  -10.89653   -1.71366
       H    13.93787   -6.00267   -1.96285
       O    13.50659   -5.12493   -2.05040
      H1    14.08313   -4.51876   -1.61830
       H     9.88663   -3.27596  -10.32823
       O    10.24459   -3.30259   -9.37961
      H1     9.40699   -3.28172   -8.92043
       H    13.10366   -7.86371   -3.77515
       O    13.67235   -8.30872   -4.39634
      H1    13.88392   -7.56206   -5.03314
       H    13.71439   -5.24915  -10.76301
       O    13.09038   -5.86681  -11.17370
      H1    12.39984   -5.90416  -10.49341
       H    14.82924   -6.15621   -6.52025
       O    15.01138   -6.15114   -5.57379
      H1    14.20421   -5.65913   -5.29558
       H    10.96708   -7.95987   -1.72622
       O    11.53198   -8.09892   -2.51135
      H1    11.81062   -8.98252   -2.32707
       H     7.43284  -11.70839   -4.97504
       O     7.11624  -12.09172   -5.78338
      H1     6.80942  -11.35225   -6.32211
       H    11.90701   -5.10385   -1.42032
       O    11.04216   -4.79125   -1.06677
      H1    11.31853   -3.98562   -0.56555
       H    17.78208   -2.81278   -5.32475
       O    17.00027   -3.17929   -5.69016
      H1    16.56557   -3.59017   -4.90322
       H     8.92063   -4.59285   -5.02384
       O     9.48826   -4.67691   -5.82855
      H1    10.02027   -3.80346   -5.84635
       H     5.06497   -4.30014   -7.00842
       O     5.51445   -3.49407   -6.92822
      H1     6.37165   -3.77721   -7.30784
       H     7.82477   -8.56045    0.35228
       O     7.79547   -7.62055    0.51787
      H1     6.82950   -7.47055    0.37448
       H    16.80296   -7.97032   -7.25032
       O    17.24012   -8.02176   -6.37493
      H1    16.95937   -8.87702   -6.01273
       H     4.92145   -8.13431   -5.10171
       O     4.22542   -8.46796   -4.52581
      H1     4.18269   -7.89572   -3.75733
       H    15.85913   -7.39539   -1.90275
       O    14.88761   -7.43233   -1.77431
      H1    14.78333   -8.39620   -1.76626
       H    10.39171  -11.00602   -7.00125
       O    10.53702  -10.69494   -6.11876
      H1    11.48256  -10.42737   -6.10827
       H    13.44143  -13.24553   -3.48253
       O    12.66200  -13.22132   -2.94071
      H1    12.87360  -12.46851   -2.37829
       H    14.45904   -6.58457   -8.79298
       O    14.27196   -5.82729   -8.25904
      H1    14.81879   -5.10866   -8.64591
       H     5.28046   -6.22691   -1.17812
       O     5.41337   -6.68734   -0.27889
      H1     4.96516   -6.04506    0.35763
       H    15.52133  -11.52458   -7.31508
       O    15.47506  -10.54103   -7.19185
      H1    14.52692  -10.39224   -7.14470
       H     8.93510   -2.09083   -1.62874
       O     9.11518   -2.96318   -2.04051
      H1     9.94614   -3.31329   -1.68777
       H    14.50655   -3.05301   -7.22140
       O    15.23706   -2.60222   -7.63070
      H1    16.00376   -2.62350   -6.92894
       H    10.04202   -6.48822   -8.02017
       O     9.47310   -7.18921   -7.67328
      H1     9.58606   -7.01256   -6.73238
       H    10.78369   -4.87497   -9.43945
       O    10.92294   -5.85514   -9.40270
      H1    10.20160   -6.11919  -10.02489
       H    10.23406   -6.31464   -4.85169
       O    10.85322   -7.03833   -4.79316
      H1    10.85097   -7.25507   -3.83812
       H     9.25822   -8.60683   -9.65088
       O     8.67700   -9.25948  -10.03419
      H1     8.15330   -8.69768  -10.63011
       H    11.43544   -0.56871   -2.17180
       O    12.02658   -1.36391   -2.01225
      H1    12.67079   -1.37349   -2.73537
       H     7.83337   -4.05929   -0.98034
       O     6.94604   -4.16426   -0.61556
      H1     6.95547   -5.02638   -0.13729
       H     7.27078   -3.63808   -4.59440
       O     7.55356   -2.67501   -4.65240
      H1     8.14166   -2.46724   -3.87601
       H     9.50406   -8.35597   -4.85900
       O     8.80960   -9.00045   -4.98499
      H1     9.19541   -9.67278   -5.54806
       H    14.07459   -1.34681   -4.88023
       O    13.48719   -2.00939   -4.52188
      H1    12.63362   -1.75817   -4.90245
       H     8.39860   -7.01791  -11.69934
       O     9.23048   -6.55649  -11.54444
      H1     9.84026   -6.94319  -12.20185
       H    12.71083   -4.07538   -6.14782
       O    12.70170   -3.74409   -7.04513
      H1    12.48772   -4.56003   -7.50305
       H    10.26845   -0.87622   -5.86282
       O    10.88838   -1.18258   -5.16072
      H1    10.38215   -1.27252   -4.28555
       H    12.53255   -7.97002   -8.66590
       O    11.80178   -8.55876   -8.45640
      H1    11.04586   -7.92722   -8.34308
       H    15.95830   -3.91399   -1.54050
       O    15.42097   -3.77980   -0.78148
      H1    15.18132   -2.85598   -0.88303
       H     7.84753   -4.60386   -8.55773
       O     7.95645   -3.79469   -8.02076
      H1     8.45013   -4.04748   -7.25090
       H    15.64843   -7.04106   -0.30434
       O    16.14522   -6.85315    0.49576
      H1    15.96165   -5.89218    0.64975
       H    15.64909  -10.25630   -5.45967
       O    16.11431   -9.89304   -4.72191
      H1    15.54473   -9.11736   -4.54985
       H    10.65621  -12.33754   -9.18450
       O    10.42111  -12.75033   -8.30764
      H1    11.22083  -13.09782   -7.95707
       H     9.35605  -11.14916   -1.45345
       O    10.02522  -11.57547   -0.92352
      H1     9.69753  -12.49418   -0.96419
       H     4.47783   -8.35291   -8.29605
       O     5.25424   -8.02723   -8.78348
      H1     5.55025   -8.71544   -9.49280
       H     4.95673   -9.98257   -2.58079
       O     5.72658  -10.47506   -2.31316
      H1     5.62148  -11.37870   -2.76490
       H    10.95413   -6.42800    0.01032
       O    10.74832   -7.36777    0.10036
      H1     9.73950   -7.41380   -0.03717
       H     9.08280   -0.78723   -7.90854
       O     8.81364   -0.67076   -6.97071
      H1     8.23457   -1.39077   -6.65255
       H    14.05360   -9.35619    0.06478
       O    14.57035  -10.03351   -0.42485
      H1    15.34269  -10.17126    0.15369
       H     7.79093   -9.61908   -8.16559
       O     6.99412  -10.05496   -7.79567
      H1     6.31964   -9.38276   -8.06668
       H    14.87079   -7.91253  -10.25506
       O    14.17088   -8.19301   -9.62356
      H1    13.78815   -8.89346  -10.13463
       H     6.63895   -7.24191   -6.82637
       O     6.55438   -7.50237   -5.91901
      H1     6.98862   -8.36125   -5.94694
       H    12.12482   -8.15386    0.97806
       O    12.65992   -8.74126    1.45521
      H1    12.13844   -9.56607    1.60767
       H     8.64463   -6.25847    1.77888
       O     9.26984   -5.49450    1.76108
      H1     9.57450   -5.57308    0.82385

