180
frame 27 | Written by MDAnalysis XYZWriter (release 2.4.3)
       H    11.87742   -6.70675   19.68960
       O    12.27355   -7.04845   18.86591
      H1    12.38461   -8.01818   18.99197
       H     8.73001  -15.99096   16.50450
       O     9.30068  -15.49161   15.84282
      H1    10.10992  -15.20187   16.30005
       H     3.99304  -13.53459   12.31079
       O     4.02337  -12.88852   13.04762
      H1     3.49616  -13.30781   13.76443
       H     8.40460   -8.79560    7.76642
       O     7.88339   -8.35824    8.51454
      H1     6.95996   -8.70058    8.41821
       H     9.53579   -7.68488   18.64363
       O     9.96338   -7.84934   17.80952
      H1    10.84786   -7.54824   18.03531
       H     5.65334  -10.80249   19.73295
       O     5.80621  -10.03826   19.13112
      H1     6.30384  -10.45546   18.41674
       H    12.32905   -4.74320   16.26313
       O    11.63348   -5.44493   16.14233
      H1    12.06760   -6.12007   15.59102
       H     9.14831   -4.06307   14.62804
       O     9.71143   -3.59678   15.29737
      H1    10.39214   -4.27107   15.46601
       H    10.57946   -8.84076    9.47575
       O    11.24911   -8.33457    9.01578
      H1    10.89980   -8.42359    8.11040
       H    14.65333  -12.68277   18.88026
       O    13.89575  -13.17990   18.54601
      H1    14.37339  -14.04195   18.49109
       H    13.14410   -5.69300    9.48478
       O    13.58065   -6.54529    9.45148
      H1    12.78943   -7.12442    9.37661
       H     8.47452   -6.06590   16.02909
       O     7.64446   -5.77802   15.67628
      H1     7.34039   -5.13431   16.31399
       H     3.91343   -7.12337   15.53600
       O     3.75296   -7.78677   16.23025
      H1     3.23347   -8.46364   15.74366
       H    13.06491  -13.82106    9.42526
       O    12.80886  -14.75524    9.53493
      H1    12.15276  -14.55979   10.27619
       H     6.05268  -13.76506   13.08286
       O     6.74944  -13.94778   12.44070
      H1     7.16032  -14.73596   12.82866
       H     5.91115  -10.71913   12.36563
       O     5.89822   -9.85843   12.80852
      H1     5.93229  -10.19390   13.73904
       H     6.85529   -7.65220   15.88690
       O     6.42230   -8.37964   16.30080
      H1     5.47765   -8.11531   16.43864
       H     9.48593   -8.77984   16.21812
       O     9.53957   -9.34196   15.43342
      H1     9.20142   -8.76054   14.70347
       H     5.07840   -5.71062   18.04263
       O     5.98948   -5.77891   18.35080
      H1     6.21775   -6.63231   17.95192
       H     8.19993  -17.00745   10.76412
       O     8.92801  -17.57886   10.41485
      H1     9.64839  -16.88975   10.41515
       H    13.24749   -3.81717   12.39475
       O    12.85438   -4.41894   13.00085
      H1    13.65183   -4.99215   13.30489
       H    14.04783  -14.87040   13.91522
       O    14.82118  -14.30375   14.05045
      H1    15.40997  -14.52974   13.32076
       H    14.62059   -6.46540   19.97554
       O    14.63856   -6.11202   19.07368
      H1    13.81231   -6.60942   18.73071
       H     5.23209  -13.98304    9.55277
       O     5.93734  -13.35437    9.79494
      H1     6.08533  -13.64260   10.71331
       H    10.06125  -10.53031   11.13041
       O    10.56684   -9.82158   11.54910
      H1     9.86721   -9.38898   12.03146
       H    10.24446  -14.20474   11.87451
       O    10.74545  -15.01641   11.59542
      H1    11.16001  -15.25234   12.44961
       H    11.10577  -11.99563   14.36309
       O    10.21714  -11.89375   14.73779
      H1    10.05189  -10.95569   14.76900
       H    15.35717   -8.65996   13.33219
       O    15.13009   -7.78112   13.66796
      H1    14.19580   -7.99980   13.95091
       H     6.96019  -15.74196   17.76682
       O     7.44385  -16.62116   17.83174
      H1     8.16918  -16.27047   18.47827
       H    14.52642  -12.51154    8.72399
       O    13.57572  -12.46201    8.60207
      H1    13.39793  -11.55095    8.82326
       H     5.75739  -10.01700   15.75045
       O     5.86821  -10.79501   15.16881
      H1     5.03320  -11.22718   15.28718
       H    10.46591   -3.50738   17.98691
       O    10.11367   -4.35109   18.31136
      H1    10.52350   -4.84571   17.55031
       H     3.26238  -11.42061   12.69392
       O     2.45731  -10.88185   12.55857
      H1     1.77875  -11.55573   12.70395
       H    16.59015  -11.89714   18.69473
       O    16.73719  -11.15420   18.10256
      H1    16.39954  -11.41121   17.18926
       H     6.21558  -17.83199   11.18272
       O     6.37036  -16.89764   11.43431
      H1     6.54110  -16.90862   12.39935
       H    15.47623  -15.30652   10.74064
       O    15.76476  -14.78481   11.50154
      H1    15.83202  -13.83795   11.18850
       H    18.08079  -10.24495   13.59665
       O    17.22443  -10.06894   13.15637
      H1    17.07290  -10.84848   12.62077
       H    12.60286  -16.69369   13.52936
       O    12.44687  -15.78560   13.71695
      H1    11.68126  -15.74874   14.39332
       H    12.17923   -9.26946   15.31811
       O    12.90825   -8.81560   14.90233
      H1    13.19478   -9.45637   14.23097
       H     6.89665   -5.57450   12.74850
       O     6.10857   -5.77594   12.18801
      H1     5.94632   -4.91072   11.76799
       H     9.60471  -12.50600   13.09600
       O     9.28728  -12.61236   12.19461
      H1     8.36301  -12.82029   12.25406
       H    11.40952   -4.89769   11.73783
       O    10.78232   -5.03544   10.99135
      H1    11.15726   -4.66617   10.16519
       H    12.44297   -9.77363   11.93743
       O    13.22349  -10.14715   12.45838
      H1    12.80874  -11.04387   12.75798
       H     7.98177  -12.69637   18.75945
       O     7.14418  -12.59688   18.22097
      H1     7.58709  -12.67731   17.34573
       H    14.15391  -11.30831   16.33648
       O    13.23981  -11.61056   16.57782
      H1    13.34361  -12.38825   17.17073
       H    14.17002   -9.55533    9.93496
       O    13.62701   -9.63409    9.12441
      H1    12.84047   -9.15364    9.49154
       H    16.51700  -11.32239   15.00177
       O    15.93034  -11.92917   15.50391
      H1    15.76902  -12.55987   14.77129
       H     7.42144  -11.80563   15.39323
       O     7.88668  -12.65802   15.61661
      H1     8.81049  -12.44295   15.30668
       H     4.74144   -8.52732   12.54074
       O     4.33663   -7.71235   12.19295
      H1     4.92581   -6.97418   12.13212
       H    13.11496  -12.19397   14.45958
       O    12.44428  -12.53029   13.76395
      H1    12.78873  -13.36150   13.47144
       H     8.97857  -14.46255    9.28963
       O     8.13711  -14.62086    8.96257
      H1     7.47957  -14.12558    9.55615
       H     6.48185  -13.73754   14.99204
       O     5.63351  -14.19790   14.86483
      H1     5.79087  -15.16581   14.87568
       H     2.20244  -12.46918   15.97889
       O     2.87183  -11.80933   16.21717
      H1     2.67813  -11.59581   17.14871
       H    13.73334  -10.10112   19.15478
       O    12.83770   -9.94932   18.80344
      H1    12.87164  -10.37999   17.93400
       H     7.89523   -3.87203   12.33318
       O     8.49858   -4.39597   12.86876
      H1     9.18588   -4.57583   12.17976
       H    11.92998  -16.15718   17.89841
       O    11.62492  -15.24826   17.62807
      H1    12.40645  -14.67946   17.71028
       H     6.02310  -13.97266   17.86368
       O     5.50601  -14.73144   17.61129
      H1     5.36639  -14.45602   16.70568
       H     9.70800   -6.33120   10.59381
       O     8.91120   -6.94914   10.47679
      H1     8.78701   -7.12779    9.53389
       H     8.47483   -8.00660   12.02932
       O     8.57049   -8.56928   12.81052
      H1     7.70585   -8.96060   12.80428
       H     8.15615  -16.21600   14.71353
       O     7.54858  -16.34500   13.99827
      H1     7.18445  -17.18795   14.26129

