180
frame 6 | Written by MDAnalysis XYZWriter (release 2.4.3)
       H     5.45234   10.95741   14.50121
       O     6.27056   11.38306   14.26656
      H1     6.00458   12.25398   13.95177
       H     2.93824   11.91537   19.56620
       O     2.39479   12.59267   19.10456
      H1     3.07907   13.20052   18.76965
       H     3.61836    8.44503   15.75155
       O     3.03585    9.21622   15.69416
      H1     2.28866    8.79900   15.27279
       H     0.22288   15.92804   16.37282
       O     0.39044   15.16229   17.00569
      H1    -0.46986   14.99241   17.39226
       H     3.87497   16.98064   15.47929
       O     4.74743   17.21781   15.70331
      H1     4.89960   18.06466   15.21033
       H    -0.78915   11.35286   11.07333
       O    -0.30391   10.95555   10.34720
      H1    -0.24867   10.04179   10.67780
       H    -2.85685   12.14284   11.61377
       O    -2.17273   11.85209   12.18332
      H1    -1.85952   12.64583   12.58850
       H     2.63723   10.57806   14.70073
       O     2.35316   11.30073   14.06762
      H1     1.40577   11.34073   14.31684
       H     4.95894   10.38711   16.97321
       O     5.65979    9.64357   17.09819
      H1     6.51107   10.08466   17.27148
       H     2.89590   11.02310   12.51134
       O     3.39367   11.05777   11.64426
      H1     3.29177   10.10608   11.44260
       H    -4.34349   17.36785   10.04563
       O    -4.75294   16.98771   10.84806
      H1    -4.02699   16.75389   11.35453
       H    -0.36650   19.34927   19.49039
       O    -0.60854   18.62589   18.88250
      H1     0.15374   18.07023   18.92554
       H     6.85255   14.85576   19.21096
       O     7.46117   15.29467   19.78971
      H1     8.27944   15.29758   19.22410
       H    -4.33832   14.95416   13.48381
       O    -3.99198   14.49054   12.69810
      H1    -3.09167   14.73757   12.84741
       H     9.49039   18.79614   16.47443
       O     9.73898   17.91356   16.83784
      H1    10.67621   17.89493   16.56035
       H    -1.47066   17.01374   14.54993
       O    -0.61426   16.58995   14.77887
      H1    -0.74464   15.65099   14.60467
       H    -3.15785   11.09887   18.13763
       O    -2.74259   11.97798   17.92535
      H1    -2.39338   11.94033   17.02627
       H     4.09657   18.49381   12.62850
       O     5.05076   18.56378   12.40125
      H1     5.16739   18.25664   11.46623
       H     1.36413   17.24257   14.27605
       O     2.22629   17.12250   13.90732
      H1     2.11468   16.16062   13.77474
       H     9.84249   16.63146   11.91287
       O     9.01713   16.99192   12.37422
      H1     9.34812   17.52062   13.10404
       H    -0.21968   10.73655   15.50262
       O    -0.23295   10.13941   14.76497
      H1    -0.02499    9.31137   15.21731
       H    -2.36236   14.36866   15.03160
       O    -1.73155   13.85063   14.50149
      H1    -2.18259   12.95972   14.50014
       H    -1.34640   17.45471   11.79028
       O    -2.08769   17.00370   12.19648
      H1    -2.27511   17.62980   12.89912
       H     8.08180   14.18500   12.75847
       O     8.91124   14.34695   13.21073
      H1     8.87403   15.31655   13.03970
       H    -4.43721   14.92734   15.78283
       O    -3.69818   15.44741   15.35330
      H1    -3.63220   16.26779   15.85415
       H     2.41942   12.95965    6.93068
       O     2.26992   12.11278    7.24669
      H1     1.87412   12.11294    8.11236
       H     1.80349   14.28502   11.31584
       O     1.72794   15.12061   11.84649
      H1     0.82077   14.97589   12.07889
       H     1.03334   16.24156   18.27295
       O     1.37717   17.03662   18.83145
      H1     2.00553   17.48127   18.19618
       H    -3.84956   13.18183    9.86593
       O    -4.48375   12.78128   10.45945
      H1    -4.45898   13.22443   11.30668
       H    -1.95990   13.38481    8.90108
       O    -1.96085   14.28875    9.18542
      H1    -1.25177   14.81402    8.76177
       H    -4.60026   17.72370    7.66657
       O    -3.93787   18.05751    8.26482
      H1    -3.92445   18.97664    7.98371
       H     6.09263   14.11605    6.13116
       O     5.57091   14.76216    6.61027
      H1     4.97886   14.87884    5.86667
       H     4.17634   15.63209   12.93685
       O     5.08992   15.80591   13.29531
      H1     5.22649   16.68478   12.95401
       H     4.13325   15.30659   18.90861
       O     4.47569   14.53444   18.46712
      H1     5.10568   14.85012   17.82756
       H     8.89445   17.61993   20.15096
       O     8.41087   18.11302   19.52299
      H1     8.78513   17.76338   18.68626
       H     9.71387   18.16389   10.02569
       O     8.74594   18.09231   10.08625
      H1     8.67871   17.56116   10.88188
       H     6.18656   17.58094    8.01726
       O     6.84653   18.12074    7.55017
      H1     7.60403   18.00413    8.10554
       H     9.96882   16.12812   17.34324
       O     9.97105   15.26686   17.79648
      H1     9.46188   14.75730   17.14882
       H     2.63835   12.28838   10.72889
       O     1.90423   12.80108   10.37201
      H1     1.23993   12.09154   10.45390
       H     1.03269   17.87266   10.17722
       O     0.62169   17.17670   10.69006
      H1     1.31012   16.56223   10.93176
       H     5.42505   15.34494   15.38636
       O     5.53368   14.50889   15.89204
      H1     6.53080   14.50512   15.81776
       H    -1.17436   14.49821   10.85990
       O    -0.90254   14.53492   11.79895
      H1    -1.24813   15.36902   12.11779
       H     3.75639   18.51645   17.11098
       O     2.98675   18.77411   17.63504
      H1     2.76866   19.51938   17.03223
       H     0.18805   16.24560    8.94024
       O    -0.23966   16.07840    8.12313
      H1     0.41116   15.69562    7.58947
       H     6.38399   12.02718   10.12947
       O     6.33981   12.16670    9.19328
      H1     5.67761   12.86927    9.04289
       H     1.98063   17.29947    6.08548
       O     2.82261   16.99646    5.79970
      H1     3.26173   17.71161    5.29224
       H     2.42323   19.38105    8.03631
       O     1.53212   19.12805    8.39339
      H1     1.02729   19.78789    7.87893
       H     4.58115   14.36053    8.01581
       O     4.29987   14.20594    8.93498
      H1     3.75131   13.44268    8.88788
       H     3.41467   12.34361   15.80593
       O     4.03656   12.08383   16.49987
      H1     4.65436   12.83915   16.46728
       H    -2.09958   18.06667    7.12113
       O    -1.94326   18.53744    6.27060
      H1    -2.51974   18.02189    5.69806
       H     1.46268   11.86755   17.29843
       O     0.64354   12.13464   16.84921
      H1     0.58099   13.07118   16.99377
       H    -1.40743   19.25169   15.21545
       O    -2.16156   18.77944   14.82299
      H1    -2.67650   19.51802   14.46656
       H    -3.79740   11.22165   14.86794
       O    -2.81560   11.23063   14.89966
      H1    -2.59250   10.87340   14.06668
       H     7.68067   14.41532   10.21791
       O     8.09089   15.25068   10.19262
      H1     8.64724   15.16296    9.39851
       H     5.04360   15.97726    9.93661
       O     5.65964   16.71367    9.88255
      H1     6.59462   16.27864    9.90133
       H     5.31422   10.50686   11.68141
       O     6.28091   10.53301   11.74208
      H1     6.41658   10.79492   12.69376
       H     5.11243   12.99506   11.94777
       O     5.85556   13.50812   12.32164
      H1     5.46811   14.22856   12.80090
       H    -2.08621   17.54359   18.95550
       O    -2.81528   16.90569   18.83470
      H1    -2.26903   16.13637   19.07635
       H    -3.92326   17.43617   17.70531
       O    -4.16449   17.82732   16.83462
      H1    -3.20821   18.01199   16.52605
       H     8.42255   13.99833   14.98381
       O     8.22666   13.94245   15.91977
      H1     8.17439   12.99797   16.08874

