180
frame 3 | Written by MDAnalysis XYZWriter (release 2.4.3)
       H   -17.17686   19.02158   13.33072
       O   -17.88459   18.35538   13.41598
      H1   -17.56554   17.68215   13.99838
       H   -14.88999   14.59084    5.87318
       O   -13.88322   14.59990    5.83955
      H1   -13.62197   14.99311    4.95232
       H   -19.27542   13.02790    1.77618
       O   -19.00620   12.50858    2.52769
      H1   -18.05341   12.33831    2.35348
       H   -18.58682    6.40003   10.11011
       O   -18.47449    6.41358   11.05206
      H1   -18.69972    7.29195   11.29147
       H   -15.85615   14.51892    3.10620
       O   -16.85984   14.45550    3.13217
      H1   -17.26716   15.34184    2.94182
       H   -15.66401    7.91822   10.51099
       O   -16.17707    7.79886   11.30079
      H1   -16.63520    6.95330   11.10684
       H   -14.30249   16.55976    9.71136
       O   -14.82398   17.35273    9.49884
      H1   -14.54138   17.58908    8.58616
       H    -8.61487   15.64007   14.99366
       O    -9.36986   16.25342   14.90998
      H1    -9.82555   15.92394   14.09963
       H   -16.71856   14.87080   18.90860
       O   -16.89400   15.74663   18.53151
      H1   -17.84512   15.72689   18.32413
       H   -14.02226   16.07905   16.96702
       O   -13.57231   15.46855   16.34468
      H1   -13.23642   14.74083   16.87337
       H   -13.78192    9.91713   13.75738
       O   -13.43887   10.76617   13.47491
      H1   -12.46643   10.67407   13.45671
       H   -16.62462   15.50962   14.64310
       O   -17.21768   16.25636   14.92473
      H1   -16.77038   16.41310   15.76388
       H   -14.81306   16.86991   13.57040
       O   -14.39751   17.47680   12.97408
      H1   -13.66781   17.72717   13.52828
       H   -15.19511   10.31726    7.45820
       O   -15.97015    9.88254    7.81807
      H1   -15.56176    9.20731    8.38738
       H   -15.55056    8.83611   14.18894
       O   -14.90787    8.39059   13.69291
      H1   -15.38824    8.15449   12.87315
       H   -14.72074   18.65683   16.80320
       O   -14.79479   17.66306   16.92634
      H1   -15.29861   17.68819   17.79073
       H   -19.03790    9.56881    8.57712
       O   -18.72018   10.35241    9.02664
      H1   -17.80210   10.38265    8.81106
       H   -11.23711   15.80202    9.39522
       O   -10.32913   15.53513    9.27026
      H1   -10.44132   14.55136    9.28262
       H   -16.63486   13.83449    4.78256
       O   -16.55466   13.51830    5.70826
      H1   -17.54508   13.40288    5.92094
       H   -11.05351   12.62643    9.67450
       O   -10.49622   12.94529    8.94263
      H1   -11.03025   12.92482    8.13871
       H   -16.44402   10.54719   15.22824
       O   -16.79932    9.63153   15.31883
      H1   -17.64310    9.88245   14.91190
       H   -11.66065    9.47440    7.52416
       O   -10.90264    8.96303    7.90355
      H1   -10.85714    8.17890    7.31036
       H   -15.47420   20.01527    4.61470
       O   -14.69650   19.45186    4.37860
      H1   -14.88299   18.74745    5.01053
       H   -16.22807   13.10300   18.44762
       O   -15.83732   13.54737   19.23364
      H1   -16.52259   13.31660   19.90061
       H   -17.40718   17.28802   11.25660
       O   -17.36431   16.53761   10.66800
      H1   -16.57892   16.76708   10.17552
       H   -15.95796    7.45189    5.32884
       O   -15.87383    7.23837    6.22787
      H1   -15.55663    8.04054    6.67526
       H   -11.02585    9.06873   11.88358
       O   -11.45418    9.53247   11.08348
      H1   -11.13794    9.01847   10.35143
       H   -18.10417    9.16618    4.01550
       O   -18.67464    8.52812    3.60542
      H1   -18.74663    8.83978    2.70888
       H   -18.67741   10.02367   11.21360
       O   -18.71408    9.21902   11.75865
      H1   -17.83438    8.83882   11.57401
       H    -9.71433   14.21305   11.99413
       O   -10.36178   14.79102   12.37771
      H1   -10.74686   15.27240   11.59822
       H    -9.44008   15.44518    7.51464
       O    -8.70070   15.71189    6.88945
      H1    -7.98456   15.44841    7.49162
       H   -12.84577   12.48091   18.49605
       O   -12.87439   13.44912   18.36663
      H1   -13.80220   13.63650   18.52117
       H   -16.86451   18.40828    5.48733
       O   -16.62574   18.39689    6.47146
      H1   -17.43916   18.25034    6.94271
       H   -12.04463   16.25006   16.41889
       O   -11.31312   16.91946   16.55424
      H1   -10.59471   16.58629   15.94754
       H   -10.86620   12.45709   11.88680
       O   -11.58313   12.13497   11.34289
      H1   -11.39322   11.17622   11.29712
       H   -19.05961    9.31473   13.40652
       O   -19.40721    9.63363   14.26768
      H1   -19.78247    8.83326   14.53758
       H   -19.10626   16.70853    8.99315
       O   -18.95684   17.46361    8.37369
      H1   -18.61759   18.07816    9.07556
       H   -13.10833   15.06924    2.60545
       O   -12.75451   15.51022    3.42003
      H1   -12.74459   16.44376    3.11497
       H   -13.22256   14.85846   11.49809
       O   -12.75595   15.75805   11.34615
      H1   -13.26347   16.37304   11.87964
       H   -12.90066   11.46750    6.84949
       O   -13.48822   10.70109    6.82429
      H1   -13.26473   10.25775    6.01296
       H   -14.98917   17.27935    6.76822
       O   -14.05416   17.32003    6.81907
      H1   -13.73023   16.38222    6.70944
       H   -16.39196   12.02683   13.49709
       O   -16.26596   12.23694   14.44741
      H1   -17.19331   12.47406   14.71232
       H   -19.26934   18.33563   11.07453
       O   -18.80867   19.05026   10.61843
      H1   -19.45572   19.63584   10.18372
       H   -17.66840   14.90334   10.84074
       O   -18.04889   13.98000   10.96203
      H1   -18.31086   13.79572   10.06465
       H   -17.16549   12.64665   11.35783
       O   -16.43798   11.99629   11.44576
      H1   -15.75149   12.62661   11.43138
       H   -13.61287   18.75329    9.93837
       O   -13.49388   19.68013   10.36598
      H1   -12.60318   19.94364   10.11172
       H   -19.53272   11.51623   14.69788
       O   -18.99270   12.28053   15.08942
      H1   -19.29930   12.89486   14.41263
       H   -18.10433   17.26848    4.06569
       O   -17.38312   17.83677    3.80873
      H1   -17.85127   18.63903    3.54346
       H   -18.61099   11.94808    5.57199
       O   -19.25665   12.56274    5.95280
      H1   -19.76783   12.87055    5.19457
       H   -18.55665   14.66321   12.59019
       O   -19.13829   14.73901   13.42893
      H1   -18.48180   15.23211   14.02077
       H   -17.54613   11.04558   17.82561
       O   -17.83034   11.98372   17.83715
      H1   -18.37138   12.02504   16.99084
       H   -14.47082   14.84537   14.95833
       O   -15.03626   14.70529   14.22612
      H1   -15.43384   13.82234   14.44027
       H   -14.08521   10.18001   11.48366
       O   -14.21549   10.43651   10.53666
      H1   -15.04924   10.94277   10.75206
       H   -12.23814   18.42662    6.56976
       O   -11.88042   19.29356    6.68439
      H1   -12.63958   19.85052    6.98174
       H   -11.71345   19.15379   14.51489
       O   -12.37424   18.45905   14.74557
      H1   -11.95300   18.06596   15.49036
       H   -12.24158   13.60464    5.92182
       O   -11.65162   13.03860    6.37667
      H1   -11.09232   12.72352    5.61367
       H   -13.74237    8.89057    9.61444
       O   -14.20060    8.08350    9.30409
      H1   -13.67048    7.32397    9.71804
       H   -13.33987   12.78000   11.93783
       O   -14.06508   13.39296   11.84115
      H1   -14.19577   13.74221   12.77255
       H   -17.02319    9.35169   17.02949
       O   -17.45606    9.16805   17.86780
      H1   -16.66604    8.91586   18.38927
       H   -16.66944   11.29903    5.41656
       O   -17.30404   10.59413    5.36473
      H1   -16.99386    9.89521    6.03508

