180
frame 6 | Written by MDAnalysis XYZWriter (release 2.4.3)
       H     5.98114   -0.02168    7.11865
       O     6.20567   -0.89389    6.75239
      H1     5.80250   -1.46752    7.44502
       H     8.07253    8.37020    1.15612
       O     8.12046    8.68484    2.04012
      H1     8.71617    9.42896    1.97178
       H    16.54848    4.06348    4.92664
       O    15.85693    4.79589    4.82393
      H1    15.05141    4.31338    4.91953
       H    12.08526    4.15394    8.97863
       O    12.38613    3.76638    8.16660
      H1    12.77763    4.52302    7.64461
       H     6.13896    2.82178   11.05557
       O     5.58679    2.04619   11.07187
      H1     5.20838    2.19524   11.97147
       H     9.18581   10.61545   10.19000
       O     8.85506   10.22126   11.00090
      H1     7.89715   10.33841   10.98149
       H    12.72915    1.77694   11.01691
       O    12.85702    1.37577   10.11146
      H1    13.05802    0.46615   10.33326
       H    16.69880    7.61074    5.94113
       O    15.83197    7.26344    5.78355
      H1    16.03876    6.31960    5.51846
       H    13.54289    6.24935   10.77052
       O    14.37311    5.75656   10.62660
      H1    14.04095    4.92276   10.34792
       H     8.73996    3.38318   11.59175
       O     9.54506    2.89068   11.79115
      H1     9.51672    2.26639   11.06069
       H     8.90431    8.72670    6.19798
       O     9.56974    8.15221    6.55672
      H1     9.32829    8.10401    7.44573
       H    15.68172   -0.16794    9.13473
       O    15.33748   -0.14578    8.19387
      H1    15.13955    0.83028    8.15981
       H     7.25666    3.36792    4.89643
       O     7.45109    2.57169    4.35196
      H1     8.12443    2.10282    4.86309
       H     4.61641    5.30133   10.66827
       O     5.23210    5.56817   10.02988
      H1     4.78957    5.38959    9.14459
       H     6.67000    0.72519   10.50607
       O     6.87056   -0.21758   10.58794
      H1     6.64646   -0.40174   11.53153
       H     4.19911    3.43254    7.63486
       O     4.06332    4.39224    7.79920
      H1     3.16717    4.32286    8.12691
       H    14.10156    2.81716    8.88487
       O    15.05180    2.97346    8.67307
      H1    15.04212    3.56408    7.95436
       H    11.42093   -0.94982    5.68999
       O    10.56879   -0.61237    5.96215
      H1     9.99065   -0.53599    5.15880
       H     6.25022    5.63543    0.06784
       O     6.26218    5.53260    1.05305
      H1     5.40417    5.08581    1.16450
       H    11.80744    0.72866   -0.74589
       O    11.27355    0.60713    0.07821
      H1    11.75376    1.25346    0.61781
       H     7.77751    7.55461   10.85065
       O     7.77245    7.08887   11.68171
      H1     8.41628    7.54011   12.22607
       H    11.34919    5.30120   11.17592
       O    11.20221    4.76798   10.37258
      H1    10.73995    3.99587   10.74493
       H    11.95249    6.70715    3.82892
       O    12.87264    6.80308    4.12781
      H1    13.17231    7.21200    3.32779
       H    12.76202    6.93003   12.76503
       O    11.94299    6.96629   12.24106
      H1    11.98887    7.87227   11.89914
       H    11.85241    5.22774    0.04017
       O    11.19460    5.35107    0.72959
      H1    11.31776    4.57280    1.25974
       H    12.26166    2.44135   13.34473
       O    12.00736    2.26260   12.45525
      H1    11.13072    2.55971   12.37035
       H     5.83806   10.39834    8.62655
       O     5.44882    9.80095    7.92613
      H1     5.21663   10.23107    7.12230
       H    10.96499    3.93553    5.07831
       O    11.33121    4.00745    4.14669
      H1    12.02368    3.33486    4.15538
       H    10.15607    5.26284    7.28621
       O     9.93046    4.66090    6.49002
      H1    10.37883    3.85027    6.74295
       H    10.37579   10.86393    2.45396
       O     9.89493   10.68612    3.26257
      H1    10.40430   10.06664    3.80385
       H     7.42688    7.46291    3.17349
       O     6.88530    6.71230    3.49573
      H1     6.61437    6.24664    2.75772
       H    14.50371    4.43842    2.46509
       O    13.63354    4.89374    2.49912
      H1    13.63121    5.32862    3.33224
       H    13.41840    9.53273    5.19351
       O    14.32187    9.70206    5.64097
      H1    14.86379    8.84611    5.49169
       H     3.25801    3.59808    1.92210
       O     3.95647    4.24487    2.05266
      H1     4.24820    4.14906    2.95744
       H     8.67597    3.78808    0.77071
       O     8.23554    3.87960   -0.03478
      H1     7.42086    4.36762    0.24111
       H     4.98287    1.87105    6.33598
       O     5.19284    2.09315    7.27962
      H1     6.15111    2.39123    7.28939
       H    10.47983    6.69616    1.59255
       O    10.42927    7.41766    2.26277
      H1     9.53453    7.85124    2.08086
       H    14.62210    5.90036    0.17317
       O    13.92260    5.32962   -0.12810
      H1    13.52913    5.32197    0.78604
       H    10.81721    1.23171    6.33066
       O    11.15855    2.12501    6.32478
      H1    11.75806    2.18129    7.06005
       H    10.87318    0.85222    9.71576
       O     9.90028    0.97795    9.66423
      H1     9.55002    0.11761    9.82376
       H    11.30470    2.65200    2.41110
       O    12.06694    2.78013    1.77510
      H1    12.56006    3.58232    2.18307
       H    14.37520    6.22088    6.68017
       O    13.59431    5.67067    6.71689
      H1    13.35654    5.84308    5.80630
       H     9.24947   -1.83657    6.63274
       O     8.47637   -2.42005    6.89715
      H1     7.67496   -1.86718    6.83323
       H     5.17203    7.11955    7.05805
       O     4.26988    6.92068    7.46257
      H1     4.28229    5.96183    7.35836
       H    10.71455    8.60414    5.35840
       O    11.29271    9.09454    4.67426
      H1    11.28066    8.38497    3.96503
       H     9.90621    3.75831    3.13871
       O     9.29694    3.34681    2.50212
      H1     8.49621    3.24747    2.87965
       H     9.75870    5.69776    9.56089
       O     9.37674    6.23827    8.82345
      H1     8.57544    6.63112    9.16994
       H    13.98074   -1.61147    5.43422
       O    13.20571   -1.46726    5.93931
      H1    13.41782   -1.80281    6.82920
       H     7.96125   -0.49771    4.23768
       O     8.67811    0.11864    4.05740
      H1     8.47859    0.44840    3.20989
       H     6.46126    8.43570    8.75563
       O     6.96798    7.64729    9.06536
      H1     6.25726    7.10056    9.41451
       H     7.01155    5.23225   14.27099
       O     6.41556    5.17923   13.50141
      H1     6.88455    5.53018   12.78206
       H     4.78561    7.62530    3.91846
       O     4.15784    8.16570    3.43919
      H1     3.31465    7.73293    3.43239
       H    12.68210    1.39246    5.15095
       O    13.23585    1.68261    4.40005
      H1    12.86302    1.20061    3.65788
       H     3.78750    5.46550    5.04123
       O     4.66303    5.04040    4.77300
      H1     5.26127    5.05348    5.54095
       H     7.33968    3.47344    9.42950
       O     7.30546    3.80655   10.33226
      H1     6.63570    4.48648   10.12819
       H     8.29516    5.32443    6.08414
       O     7.45069    5.05753    5.67408
      H1     7.34047    5.75264    4.92369
       H     8.80072   10.87953    5.32225
       O     8.06129   10.57939    5.84316
      H1     8.18679   10.70019    6.73448
       H    14.94347    1.24049    4.19338
       O    15.88031    1.07582    4.18879
      H1    16.04729    0.83343    5.10315
       H     5.81588    1.34960    4.35522
       O     4.86899    1.12563    4.36603
      H1     4.77245    0.78305    3.46044
       H     8.44584    2.00126    8.03227
       O     8.02830    2.59523    7.41828
      H1     8.74387    3.19444    7.33622

