180
frame 7 | Written by MDAnalysis XYZWriter (release 2.4.3)
       H    -7.64159   -8.36252  -17.64333
       O    -7.91671   -9.29721  -17.66568
      H1    -7.86862   -9.64629  -18.52516
       H   -14.16480  -13.59362  -17.02864
       O   -13.96654  -13.14894  -17.88487
      H1   -14.63557  -12.46797  -17.84254
       H   -18.75929   -3.27887  -12.24276
       O   -18.71342   -3.10741  -13.21027
      H1   -19.02854   -3.85298  -13.73015
       H   -18.37381  -14.03788  -11.39169
       O   -17.58979  -14.33291  -11.85303
      H1   -16.87201  -14.16833  -11.21083
       H   -10.67031  -16.08237  -16.90929
       O   -11.41124  -15.79417  -16.31837
      H1   -11.14512  -14.95099  -15.89752
       H    -9.36520  -12.97083  -18.35869
       O    -9.92172  -12.98282  -19.11184
      H1    -9.28522  -12.66205  -19.80727
       H    -9.64482   -4.86603  -16.54749
       O    -9.93049   -5.74913  -16.78262
      H1   -10.32435   -5.59182  -17.63028
       H   -16.04639   -5.84453  -14.86169
       O   -16.61472   -6.63338  -14.88544
      H1   -17.35669   -6.31756  -14.34861
       H   -10.88179  -10.73597  -13.32572
       O   -11.50299  -10.95496  -14.03362
      H1   -11.11487  -11.72788  -14.40751
       H   -16.97172   -2.89036  -13.50191
       O   -16.01040   -2.83166  -13.61233
      H1   -15.73461   -3.78972  -13.48196
       H   -14.72096  -16.49503  -19.02026
       O   -14.09694  -17.22684  -18.71901
      H1   -13.97635  -17.83114  -19.45675
       H   -11.93256   -4.61248  -11.62988
       O   -12.43789   -4.87009  -10.82805
      H1   -12.76168   -4.03726  -10.49025
       H   -18.99555   -0.03101  -15.91031
       O   -19.09617   -0.66459  -15.23239
      H1   -18.53102   -1.43800  -15.54625
       H   -12.65584   -9.67347  -13.74168
       O   -13.24955   -8.93742  -13.43252
      H1   -14.13313   -9.18883  -13.73078
       H   -13.12351  -17.42584  -14.66712
       O   -12.32897  -17.09709  -14.24479
      H1   -11.92177  -16.61769  -15.00900
       H   -17.79255  -13.54228  -17.13685
       O   -18.09388  -14.48585  -17.22711
      H1   -18.22195  -14.78461  -16.30645
       H    -7.94184   -9.43647  -15.89182
       O    -7.92820   -9.40352  -14.89570
      H1    -8.12479   -8.49444  -14.63428
       H   -14.38330  -11.09658  -15.77908
       O   -15.16173  -11.24669  -15.19690
      H1   -15.91243  -10.83089  -15.57507
       H   -17.48382   -7.14165  -16.56225
       O   -18.18163   -7.26034  -17.23615
      H1   -17.93542   -7.97214  -17.85253
       H   -10.68242   -9.61982  -19.22884
       O   -10.35353   -8.70206  -19.45474
      H1    -9.45406   -8.62942  -18.94106
       H    -9.91038  -13.31584  -14.17155
       O   -10.18776  -13.18221  -15.07396
      H1    -9.40340  -12.97759  -15.54227
       H   -15.69990  -10.75617  -18.93091
       O   -14.97834  -10.10946  -19.18036
      H1   -14.94954   -9.36468  -18.59528
       H   -15.59720  -10.09075  -11.88743
       O   -15.79396  -11.02937  -11.70303
      H1   -15.14599  -11.36197  -12.34678
       H   -14.96571  -12.95746  -15.00948
       O   -14.83341  -13.90644  -15.14275
      H1   -14.04770  -14.04503  -14.60273
       H   -13.03605   -8.44038   -9.83283
       O   -13.08287   -7.47068   -9.79677
      H1   -12.26334   -7.23167  -10.27170
       H   -13.28805   -2.76888  -13.97754
       O   -12.41729   -2.36251  -13.89648
      H1   -12.49042   -1.40455  -13.96625
       H   -12.35747   -8.73827  -16.61147
       O   -12.36756   -7.70356  -16.58474
      H1   -11.61928   -7.47481  -17.13572
       H   -17.30459  -17.74686  -19.00855
       O   -17.79543  -17.97589  -19.81407
      H1   -17.86897  -17.15393  -20.26628
       H   -16.04628   -0.63329  -18.98908
       O   -15.26207   -1.08840  -18.67710
      H1   -15.08362   -0.90335  -17.70827
       H   -11.54065   -8.66198  -11.09716
       O   -10.87853   -8.08632  -11.41061
      H1   -11.17164   -7.79486  -12.28271
       H   -12.47267  -10.85623  -19.55820
       O   -11.71215  -10.95301  -18.99385
      H1   -11.25841  -11.78046  -19.15909
       H   -17.63980  -11.62865  -18.10275
       O   -17.07111  -11.99576  -17.40386
      H1   -17.23520  -11.49570  -16.60956
       H   -15.99901   -8.02209  -14.01862
       O   -16.10549   -8.80933  -13.50303
      H1   -16.75270   -9.16612  -14.04157
       H    -9.01351  -10.74615  -12.06408
       O    -9.94977  -10.60441  -11.89801
      H1    -9.98838   -9.63991  -11.76562
       H   -11.45627   -3.64596  -13.25255
       O   -10.80715   -4.31689  -13.08634
      H1   -11.04616   -5.08048  -13.61515
       H   -15.55676   -3.12458  -17.77466
       O   -15.13441   -3.99000  -18.04481
      H1   -14.89305   -3.75082  -18.90387
       H    -9.75951   -2.32413  -16.26673
       O    -9.28906   -2.95596  -15.76343
      H1    -9.72264   -3.01337  -14.92553
       H   -19.25098   -7.14151  -13.35141
       O   -18.54945   -6.82564  -12.82219
      H1   -18.71622   -7.34178  -12.00305
       H   -15.07988  -14.59052  -18.71102
       O   -15.85308  -15.15128  -19.02625
      H1   -16.34319  -15.23530  -18.23679
       H    -6.36143   -6.86205  -17.00152
       O    -7.24581   -7.00932  -16.73369
      H1    -7.77769   -6.30361  -17.07485
       H   -18.12207   -7.93563   -9.29024
       O   -18.16658   -8.00365  -10.26146
      H1   -17.25871   -7.80450  -10.52925
       H   -15.11411   -6.09351  -17.47290
       O   -14.99204   -7.03581  -17.41514
      H1   -14.06477   -7.24734  -17.17858
       H   -16.67642  -17.11575  -16.66736
       O   -16.39414  -17.75143  -17.31920
      H1   -15.54815  -17.38775  -17.61434
       H   -12.66638  -12.96863  -12.34354
       O   -13.05073  -13.83949  -12.60310
      H1   -12.44092  -14.49728  -12.25616
       H   -12.25164   -7.47967  -13.66809
       O   -11.64832   -6.78388  -14.00911
      H1   -11.64241   -6.98924  -14.95970
       H   -17.48343   -3.06881  -16.99650
       O   -17.31774   -2.28321  -16.47375
      H1   -16.58338   -2.44711  -15.80842
       H   -16.55649  -15.43320  -12.96994
       O   -15.91345  -15.78237  -13.52877
      H1   -15.65471  -15.09488  -14.14107
       H   -19.01326   -3.99889  -17.51454
       O   -18.19534   -4.37481  -17.92114
      H1   -18.25229   -5.37105  -17.88071
       H   -15.07629   -7.28477  -10.70764
       O   -15.79037   -6.97257  -11.25276
      H1   -15.76286   -7.58283  -12.06493
       H   -18.46811  -12.56887  -14.04745
       O   -18.27472  -11.77208  -13.61985
      H1   -17.44335  -11.91735  -13.12116
       H   -13.55998   -4.14826  -17.11386
       O   -12.65554   -3.79637  -16.97305
      H1   -12.34643   -4.28580  -16.23880
       H   -11.56220   -1.23032  -17.75965
       O   -11.54242   -1.55672  -16.85089
      H1   -12.16655   -2.28329  -16.87181
       H   -18.24299  -10.29708  -14.96245
       O   -17.54804   -9.90570  -15.56086
      H1   -18.03337   -9.31070  -16.12213
       H   -11.80566  -10.49764   -9.66235
       O   -12.63657  -10.04768   -9.79477
      H1   -13.27687  -10.67214   -9.50176
       H   -18.42973  -16.94258  -15.17137
       O   -17.73174  -16.27641  -15.30856
      H1   -17.22709  -16.20730  -14.46734
       H   -15.16470  -18.91975  -14.91417
       O   -14.67593  -18.24016  -14.40832
      H1   -15.31755  -17.51765  -14.21070
       H    -7.41355  -12.26624  -17.68418
       O    -8.19030  -12.02536  -17.14638
      H1    -8.23097  -11.09811  -17.28501
       H   -14.48442  -14.27082  -10.89371
       O   -15.18483  -14.39229  -10.21080
      H1   -15.42050  -15.28161  -10.33664
       H   -12.12647  -10.60475  -17.13993
       O   -12.70048  -10.35675  -16.34044
      H1   -12.12093  -10.49715  -15.57920
       H   -13.79975   -5.84905  -13.57979
       O   -14.59922   -5.36055  -13.43564
      H1   -14.72884   -5.52706  -12.49052

