180
frame 6 | Written by MDAnalysis XYZWriter (release 2.4.3)
       H     4.53622  -10.88085   12.27847
       O     3.75692  -10.24833   12.12688
      H1     3.21686  -10.78903   11.50522
       H     8.38791   -0.76001   13.30968
       O     9.29458   -0.52859   13.30050
      H1     9.32126    0.38217   12.97386
       H    10.89527   -8.19620    8.72356
       O    10.61241   -7.34666    8.41556
      H1    10.48589   -6.84380    9.21733
       H     2.34130   -8.89713   12.44953
       O     1.57734   -8.25494   12.39813
      H1     0.96832   -8.73697   11.78557
       H     9.70034   -2.47060   10.35026
       O    10.29909   -1.83581   10.74292
      H1     9.70573   -1.22279   11.24666
       H     3.61768   -1.34796   13.57969
       O     3.71800   -0.88771   14.44186
      H1     2.85925   -0.92370   14.90161
       H     9.16161   -3.12600   15.52363
       O     8.45534   -3.67963   15.37325
      H1     8.81053   -4.51467   15.60577
       H     3.07700  -11.88735    8.52303
       O     3.35322  -11.64129    9.42797
      H1     3.66597  -10.69511    9.38489
       H    11.83419   -4.95235   13.86652
       O    12.63013   -5.39230   14.13298
      H1    12.36490   -5.99212   14.83816
       H     6.67000    0.72519   10.50607
       O     6.87056   -0.21758   10.58794
      H1     6.64646   -0.40174   11.53153
       H     7.49725  -11.31704    8.22796
       O     6.60896  -11.44970    7.81329
      H1     6.71598  -12.16030    7.11504
       H    11.60197   -9.76225    9.54241
       O    11.57867   -9.74210    8.55612
      H1    10.76373  -10.21880    8.29393
       H     5.79067   -0.81235   13.75731
       O     6.53964   -1.08717   13.17008
      H1     6.57835   -2.05277   13.43615
       H     5.75408  -10.19357    6.76028
       O     5.45869   -9.37357    6.31191
      H1     5.51740   -9.56755    5.38618
       H     5.77654   -4.64614   17.66067
       O     5.02457   -5.11000   17.19756
      H1     4.79441   -4.49293   16.46530
       H     7.63368   -5.54657    5.45256
       O     7.44228   -4.80386    4.87272
      H1     8.24202   -4.69633    4.35184
       H     3.87131   -8.14084    8.28162
       O     3.13707   -7.55536    7.93829
      H1     3.14655   -7.73705    6.96326
       H     5.89578  -12.40452   13.76166
       O     5.97501  -11.74764   12.93584
      H1     5.82100  -12.40571   12.24483
       H     6.80830   -7.40376   10.66652
       O     6.57199   -7.89482   11.45660
      H1     6.82221   -7.19249   12.11498
       H     6.08456   -6.08094   16.30394
       O     6.53440   -6.74142   15.72343
      H1     6.04746   -7.58136   15.84922
       H     8.19283   -6.45907   16.13531
       O     9.12724   -6.10744   16.13520
      H1     9.23223   -5.65820   16.96990
       H     7.41017   -3.06166   16.83476
       O     6.93551   -2.84402   17.64640
      H1     7.71119   -2.70073   18.18468
       H    10.53584   -4.85054   10.61390
       O     9.86036   -5.53697   10.67083
      H1    10.16002   -5.92684   11.52267
       H    12.67808   -3.92563    9.80741
       O    12.81499   -4.46760   10.57306
      H1    12.89506   -3.86751   11.32996
       H     9.41058   -8.62219    5.77816
       O     9.88928   -9.40281    5.46821
      H1    10.69283   -8.96750    5.12621
       H     8.84057  -10.64868   11.13659
       O     8.37825   -9.87900   10.84582
      H1     7.59115   -9.70620   11.41141
       H     9.67623  -13.25774   14.02379
       O    10.04341  -14.05733   14.42217
      H1    10.08120  -14.64864   13.64499
       H     8.79215  -10.44099   16.81014
       O     8.50037  -10.32680   15.91904
      H1     7.58797   -9.89358   15.99837
       H     2.91494  -12.24257   14.43155
       O     2.82772  -12.49106   15.31994
      H1     2.01119  -12.96205   15.43502
       H     3.29422   -5.08118   13.51874
       O     3.42867   -5.73580   12.77991
      H1     2.69269   -6.33588   13.02447
       H     2.85201   -9.64431   16.56724
       O     2.15726   -9.32637   15.98918
      H1     2.57093   -8.89215   15.22305
       H     5.08771   -9.67045   15.10903
       O     5.86351   -9.78119   15.69306
      H1     5.37922  -10.08741   16.52147
       H     3.98059   -7.27903   13.58381
       O     4.13389   -8.15352   14.03607
      H1     4.04681   -8.82407   13.35687
       H     9.07854  -11.86987    6.76352
       O     9.37742  -11.17475    7.39921
      H1     9.52650  -10.47112    6.72551
       H     4.73914   -4.36695    7.50568
       O     3.76944   -4.40636    7.43294
      H1     3.68792   -5.28651    7.84663
       H     5.93501  -13.60879   10.34216
       O     5.29454  -12.99280   10.70331
      H1     4.85868  -12.65088    9.90008
       H     2.53951   -2.86980   11.35927
       O     2.40455   -2.26868   12.09170
      H1     1.88411   -1.56235   11.77387
       H    13.01892   -8.22765   11.03244
       O    12.37685   -9.00806   11.11500
      H1    11.85367   -8.57167   11.81396
       H    11.12397   -6.94607   16.48414
       O    11.94648   -7.23599   16.03636
      H1    11.73507   -8.11101   15.64352
       H     2.08543   -2.81128    9.26351
       O     2.84475   -3.20150    9.66172
      H1     3.37075   -3.45211    8.88443
       H     1.28247   -5.94969   11.08689
       O     1.04056   -6.08587   10.21136
      H1     1.45613   -6.94451   10.00628
       H     8.51121  -11.10587   14.21988
       O     8.60922  -11.76305   13.53906
      H1     7.69047  -11.65233   13.22955
       H     7.97647   -6.46713    8.63541
       O     7.30477   -6.07646    9.24551
      H1     7.71067   -5.15181    9.20117
       H     9.92441   -8.70781   13.22091
       O     9.94796   -8.02109   12.52338
      H1     9.42201   -8.34829   11.79165
       H     6.88558   -2.86687    9.47125
       O     7.80926   -3.27672    9.38982
      H1     8.02757   -2.94962    8.52570
       H     1.83751   -5.36077   15.39548
       O     1.03309   -5.64576   15.05833
      H1     0.32018   -5.04159   15.29335
       H     4.78951   -6.32392    5.93881
       O     5.51574   -6.33381    6.58112
      H1     5.19516   -6.86040    7.33713
       H     9.54505  -12.73895   10.23819
       O    10.24248  -12.18553    9.86598
      H1     9.80772  -12.04531    8.98024
       H     6.50992   -4.33209   13.55851
       O     5.80594   -3.75336   13.18576
      H1     5.93561   -4.01961   12.25286
       H    11.33171  -10.70688   15.27062
       O    10.98646   -9.82600   15.08444
      H1    10.13660   -9.97125   15.55927
       H    10.37647   -4.67549    7.51546
       O    11.16608   -4.38023    7.08487
      H1    10.88269   -4.24331    6.11490
       H     4.56851  -12.74566   15.39069
       O     5.48240  -12.98530   15.47676
      H1     5.76099  -12.29195   16.15037
       H     7.33369   -8.28501    7.14180
       O     8.09481   -7.68424    7.03353
      H1     8.83194   -7.96290    7.61387
       H     1.95617   -5.48839   17.63166
       O     2.33334   -4.58420   17.69699
      H1     3.27927   -4.70293   17.53051
       H     9.60444   -3.89060   13.60901
       O    10.50313   -3.64867   13.37214
      H1    10.45549   -3.27062   12.48032
       H     3.82572   -2.97031   15.13707
       O     3.66349   -3.85362   14.77045
      H1     4.53010   -3.96667   14.26772
       H     4.36145   -2.26136    9.82823
       O     5.09987   -1.89342    9.28716
      H1     5.54175   -1.19662    9.82265
       H     5.77358   -5.73764   10.41606
       O     5.38668   -5.02632   10.98900
      H1     4.61880   -5.56078   11.33644
       H     8.31455   -6.59507   13.09185
       O     7.51724   -6.05965   13.21512
      H1     7.10393   -6.47684   13.96232
       H     5.41506   -8.99435   10.17031
       O     5.02939   -9.28175    9.32728
      H1     5.61243   -9.92780    9.02389

