180
frame 1 | Written by MDAnalysis XYZWriter (release 2.4.3)
       H   -13.67962   -0.08652  -10.61922
       O   -13.98246    0.76812  -10.28684
      H1   -13.62840    1.35330  -11.04077
       H   -18.58093   -7.58335  -13.35515
       O   -18.14145   -6.74014  -13.46055
      H1   -17.44546   -7.01378  -14.16122
       H    -9.99264   -6.02555  -19.44648
       O   -10.16307   -6.80559  -18.82966
      H1   -10.39094   -7.58442  -19.35988
       H    -6.55692    2.18083  -17.77719
       O    -7.24455    1.96856  -17.11002
      H1    -7.17386    1.00382  -17.18414
       H   -15.47280   -0.54032  -17.70836
       O   -15.74268   -0.23085  -18.61604
      H1   -16.72853   -0.19829  -18.46820
       H   -16.58787   -3.41171  -15.04303
       O   -15.72228   -3.41877  -15.43279
      H1   -15.84347   -3.84291  -16.27823
       H   -11.39349   -8.56040  -11.66827
       O   -11.60474   -9.26809  -12.28163
      H1   -12.46867   -9.49039  -11.95145
       H   -11.45942   -1.15922  -15.40811
       O   -11.87134   -0.80947  -16.23905
      H1   -12.68044   -0.34136  -16.03924
       H   -19.07170   -5.80683  -15.57098
       O   -19.51890   -5.83552  -16.43501
      H1   -18.72184   -6.10532  -16.95053
       H   -18.83058   -2.73732  -13.80320
       O   -18.01915   -3.26144  -13.54140
      H1   -17.44081   -2.51191  -13.29628
       H   -10.37656   -9.88508  -16.35720
       O   -10.07420   -9.09524  -15.76359
      H1    -9.89413   -9.66693  -15.04348
       H    -8.67276   -6.00942  -12.06071
       O    -8.96184   -6.51083  -12.86730
      H1    -8.71411   -5.99561  -13.63657
       H   -11.09272   -6.47511  -12.47072
       O   -11.60044   -6.52460  -11.61187
      H1   -12.57099   -6.60972  -11.88471
       H   -14.87103   -3.22078  -18.43733
       O   -15.48594   -3.92551  -18.21357
      H1   -15.06854   -4.70161  -18.55445
       H    -9.10253   -4.07664  -10.67417
       O    -8.18058   -4.36082  -10.43652
      H1    -7.67139   -3.49500  -10.51127
       H   -11.74059  -11.14442  -18.63793
       O   -12.49732  -11.54781  -19.11178
      H1   -13.16046  -10.88243  -18.89469
       H   -16.69341   -0.81999  -12.39004
       O   -16.54382   -1.02549  -13.36096
      H1   -16.93112   -0.25321  -13.83935
       H    -7.03179   -5.77310  -12.94580
       O    -6.30890   -5.19838  -12.58656
      H1    -6.60898   -5.13985  -11.71379
       H   -17.08048   -7.76923  -18.16064
       O   -17.24699   -6.87464  -17.82560
      H1   -16.76510   -6.90291  -16.93664
       H   -10.24701  -11.66790  -17.75514
       O   -10.54799  -10.72214  -17.76562
      H1    -9.80305  -10.36927  -18.30961
       H   -11.26174   -3.80798  -10.09309
       O   -10.76112   -3.98450  -10.87403
      H1   -11.05811   -4.88821  -11.25165
       H    -8.37273   -2.82209  -13.78283
       O    -7.76478   -2.03608  -13.51806
      H1    -7.23994   -2.30330  -12.75678
       H   -15.50380   -1.60946  -10.69821
       O   -16.41327   -1.46960  -10.41276
      H1   -16.86456   -2.28511  -10.66483
       H   -18.04858   -3.77729  -11.74144
       O   -18.02847   -3.70514  -10.76207
      H1   -18.00658   -4.69301  -10.62310
       H   -12.30444   -1.82454  -13.77583
       O   -12.43006   -1.02950  -13.20850
      H1   -11.45560   -0.79996  -13.11358
       H   -10.08333   -3.87062  -14.31432
       O    -9.18821   -4.12211  -14.52289
      H1    -9.12969   -3.89454  -15.46427
       H   -14.92100  -11.73721  -15.82638
       O   -14.01175  -11.36456  -15.92846
      H1   -13.99542  -10.78954  -15.15157
       H   -16.34833   -9.61480  -12.73465
       O   -15.49871   -9.11094  -12.89765
      H1   -15.49862   -8.35933  -12.23087
       H   -18.62531   -0.28114  -19.31145
       O   -18.58884   -0.32846  -18.36009
      H1   -19.09481   -1.08721  -18.26530
       H   -12.69583   -8.72258  -14.08083
       O   -12.57546   -8.48024  -15.02092
      H1   -11.59844   -8.69145  -15.12910
       H   -13.33018   -1.69899  -11.95883
       O   -13.94933   -2.10324  -11.31299
      H1   -13.37313   -2.48544  -10.65491
       H   -16.98192    1.37206  -15.82092
       O   -17.31100    1.09208  -14.97497
      H1   -16.80181    1.58583  -14.33572
       H   -12.69235    3.76295  -18.80345
       O   -12.91748    4.72785  -18.97071
      H1   -13.79282    4.85901  -18.50555
       H   -12.82465    3.41015  -16.00056
       O   -13.68085    3.79507  -16.30812
      H1   -14.18638    2.97809  -16.52379
       H   -17.08769  -10.23203  -18.77886
       O   -16.71239   -9.38564  -18.69496
      H1   -15.78554   -9.57697  -18.45182
       H   -10.41603    0.56053  -16.79272
       O   -10.09399    1.44692  -17.12199
      H1    -9.12334    1.25471  -17.13836
       H   -14.95078   -3.48066  -12.15722
       O   -15.13260   -4.31033  -12.64870
      H1   -15.29779   -3.92759  -13.49474
       H    -8.92210   -7.33430  -17.89660
       O    -8.31099   -7.88235  -17.34433
      H1    -8.86232   -8.30515  -16.62082
       H   -13.50767   -9.29724  -18.42385
       O   -14.28274   -9.83788  -18.16330
      H1   -13.97228  -10.18780  -17.33049
       H    -8.74573   -1.86942  -16.43508
       O    -9.40934   -2.58378  -16.68563
      H1    -9.74130   -2.23851  -17.55468
       H    -9.12764   -0.80549  -13.39832
       O    -9.66349   -0.01618  -13.40187
      H1    -9.74872    0.20516  -12.44628
       H   -16.84205    2.55666  -17.32405
       O   -15.99895    2.26195  -16.95318
      H1   -15.71934    1.60181  -17.60169
       H    -7.89077   -9.37488  -18.55009
       O    -8.23333  -10.11667  -19.03493
      H1    -7.66982  -10.23068  -19.85622
       H   -17.80595   -9.64981  -16.22325
       O   -18.49537  -10.32016  -16.43213
      H1   -18.07850  -11.03403  -16.94738
       H   -11.40498   -3.50908  -12.73840
       O   -11.61392   -3.40324  -13.67285
      H1   -12.07375   -4.19805  -13.99111
       H   -13.31160    0.50074  -13.98548
       O   -13.60732    1.33440  -14.42152
      H1   -14.27342    1.72534  -13.79969
       H   -15.28044   -6.78280  -15.24623
       O   -15.99520   -7.42669  -15.10757
      H1   -15.70612   -7.90047  -14.32636
       H    -7.95503    0.09711  -15.22268
       O    -7.79622   -0.51620  -15.97549
      H1    -6.95308   -0.90698  -15.73059
       H   -15.52229   -6.53132  -18.58909
       O   -14.78326   -6.20287  -19.10411
      H1   -14.08982   -6.73967  -18.87593
       H   -13.30107   -5.48818  -16.17185
       O   -13.74778   -6.04869  -15.45016
      H1   -13.05926   -6.72461  -15.33091
       H   -12.29235    1.54362  -19.45684
       O   -11.65093    2.23754  -19.13194
      H1   -11.28188    1.76906  -18.32308
       H   -14.20096   -6.17169   -9.86961
       O   -13.88156   -5.69355   -9.06094
      H1   -14.09642   -6.42931   -8.45168
       H    -6.52492   -2.72943  -18.13126
       O    -6.62700   -2.23574  -18.96404
      H1    -6.62893   -3.02117  -19.57985
       H   -11.90502    2.18279  -14.80921
       O   -11.27063    2.81945  -15.07005
      H1   -10.75200    2.32985  -15.75084
       H   -11.76410   -3.44972  -16.60288
       O   -12.36376   -4.15256  -16.75268
      H1   -13.00125   -3.67651  -17.28613
       H   -15.16171   -6.96885  -11.08949
       O   -14.39404   -6.77923  -11.64915
      H1   -14.72974   -5.96528  -12.07704
       H    -6.20952   -4.95587  -16.34539
       O    -6.06333   -4.35902  -17.13957
      H1    -5.15376   -4.06154  -17.08487
       H   -14.91532   -1.63499  -15.93862
       O   -14.82036   -0.67890  -16.04747
      H1   -15.32429   -0.47675  -15.21773
       H   -12.56534   -7.70399  -16.76325
       O   -12.56419   -7.47942  -17.66802
      H1   -11.65703   -7.09854  -17.85771
       H    -7.49154   -6.67815  -15.91765
       O    -7.08279   -6.41554  -15.11517
      H1    -6.65809   -7.27534  -14.78624

