180
frame 0 | Written by MDAnalysis XYZWriter (release 2.4.3)
       H     8.64190   18.13880   12.99511
       O     7.91282   18.38596   12.46666
      H1     7.40960   17.57219   12.46353
       H     9.75804   15.78397    2.23196
       O     8.91737   16.15095    2.12646
      H1     8.21543   15.45651    2.34494
       H     4.85110   13.80754   14.23763
       O     5.61674   13.27890   13.89164
      H1     5.43848   13.01815   12.88800
       H     9.30681   12.32942    8.13736
       O     9.89117   13.01825    7.80515
      H1     9.95867   13.03024    6.81543
       H     6.99239   13.25622    4.34321
       O     7.14410   12.31128    4.63994
      H1     6.27904   11.91776    4.74828
       H    13.05577   19.17860    1.99662
       O    12.91830   19.99650    2.56311
      H1    12.15766   19.88639    3.13530
       H     3.93804   19.19062    5.50450
       O     3.92253   18.29973    5.93147
      H1     4.81294   17.95671    5.72213
       H    11.71015    8.73422    8.60391
       O    11.58461    9.30372    7.84361
      H1    11.50019   10.15650    8.22011
       H     2.79954   18.24977    7.22585
       O     2.33292   18.05834    8.06910
      H1     1.40125   18.48379    7.87331
       H    12.90398   15.63123    7.15531
       O    12.93807   14.73045    7.54261
      H1    13.71150   14.76483    8.18959
       H     4.66533   17.91126   12.13570
       O     4.35260   16.97695   11.94036
      H1     4.92078   16.54698   11.27221
       H     6.31509   15.45680   12.83970
       O     7.20018   15.78975   13.05679
      H1     7.89457   15.14800   12.83282
       H     7.37115   18.96900    8.26867
       O     6.50965   19.18830    7.88417
      H1     5.95197   19.46686    8.58715
       H    14.24922   16.61485    3.65562
       O    14.26472   15.71502    3.35116
      H1    13.88369   15.28501    4.07388
       H    10.21593   10.03527    1.81782
       O    10.64279    9.41518    1.17291
      H1    11.45483    9.84494    0.92628
       H     2.29970   15.05689    7.97582
       O     3.05299   15.48061    8.48138
      H1     2.81521   16.41251    8.34539
       H     8.56749   17.08693   11.34767
       O     8.75400   16.59750   10.46352
      H1     9.64419   16.27344   10.57528
       H     2.19048   17.65355    3.50247
       O     2.14571   16.99085    4.24264
      H1     2.76605   17.27190    4.89048
       H     9.45622   18.15354    9.11063
       O     9.41602   18.50412    8.17808
      H1     9.64828   19.47238    8.34042
       H    15.04818   13.85690    9.60159
       O    15.01920   14.78313    9.31847
      H1    15.65799   15.34594    9.84779
       H     3.16297   11.37174    7.46420
       O     2.35243   11.04684    7.80698
      H1     2.47543   11.02363    8.78551
       H     8.87367   16.76207   -1.06693
       O     9.80176   16.77760   -0.74350
      H1     9.71784   16.61563    0.24232
       H     1.49630   13.23546    5.98895
       O     1.76324   13.45403    6.88936
      H1     1.97788   12.57396    7.26320
       H     8.37400    9.15285    4.24964
       O     8.09453    8.21129    4.16287
      H1     8.22950    7.92663    3.28487
       H     9.99055   10.07649    5.54750
       O     9.02629   10.20215    5.77108
      H1     8.75023   11.05284    5.39448
       H    12.04278   17.14270    6.34735
       O    12.98964   17.20164    6.18142
      H1    13.12961   18.00655    5.66457
       H     9.70610   14.44827    5.07406
       O    10.25064   13.67458    4.93420
      H1    11.13897   13.84192    4.56813
       H     8.46784   19.11072    2.39337
       O     8.10166   18.80524    3.20672
      H1     8.43668   17.86994    3.12233
       H     8.38108   15.25900    9.19036
       O     7.95570   14.68988    8.52963
      H1     8.64126   14.03091    8.26600
       H     5.06989   13.62584   10.82745
       O     5.30452   12.80635   11.25132
      H1     4.49848   12.27594   11.11953
       H    13.90467   12.97137    5.02602
       O    13.18211   13.62058    5.14572
      H1    13.19594   13.96020    6.10305
       H     8.30979   15.24055    6.61357
       O     8.58656   15.62851    5.78694
      H1     7.91177   16.29570    5.59189
       H    14.08117   17.59647    0.95210
       O    13.16179   17.95137    0.97376
      H1    12.61135   17.12212    1.10097
       H     6.21067   14.98882    2.45377
       O     6.98999   14.35434    2.49936
      H1     7.14072   13.85613    1.61856
       H     1.77319   14.28928   11.26505
       O     2.49518   14.07930   10.64274
      H1     2.45302   14.75975    9.96190
       H     7.14008   11.76558   10.83866
       O     7.64662   10.94118   10.89937
      H1     8.51463   11.24808   11.05119
       H    15.15690   11.46833    7.19057
       O    14.23531   11.12119    7.33114
      H1    13.90719   10.99867    6.43652
       H     4.97636   11.27663    3.50900
       O     4.79331   11.01187    4.45170
      H1     3.89397   10.71089    4.33350
       H    10.81475   13.61577   -0.01070
       O    10.26950   13.92220   -0.80796
      H1    10.37621   14.89153   -0.79024
       H     9.85095   12.11575   12.30956
       O    10.25722   11.51788   11.70490
      H1    10.50385   10.69438   12.27583
       H     4.98148   11.70570    6.27467
       O     4.92845   12.15456    7.14924
      H1     5.73905   11.89197    7.60933
       H     6.09087   18.52494    1.13722
       O     5.64227   18.52015    1.99931
      H1     6.37110   18.73244    2.62973
       H    11.80746   10.44499    6.38899
       O    11.80787   10.79899    5.49501
      H1    12.02334   11.73110    5.61245
       H    10.16760   17.91697    6.66681
       O    10.42455   17.64946    5.79798
      H1     9.79898   16.89388    5.62514
       H     9.52612   18.38724    0.45356
       O     9.66048   19.24183    0.85429
      H1     9.43013   19.91264    0.21072
       H     5.04698   16.98292    2.65306
       O     4.78228   16.06362    2.93081
      H1     3.89969   16.20042    3.30864
       H     7.93798   10.69228    9.03149
       O     7.86294   11.14606    8.19007
      H1     8.35861   10.67381    7.50288
       H     5.92107   15.44212    9.05155
       O     5.53632   15.36384    9.91709
      H1     4.56241   15.21907    9.75621
       H     5.10348   14.01607    6.86147
       O     5.08172   14.90283    6.56690
      H1     4.40878   15.32382    7.11426
       H    11.05157   12.64985    8.88875
       O    11.71565   12.29527    9.53714
      H1    11.32696   12.27662   10.42265
       H    11.61574   15.10506    9.26049
       O    11.50032   15.75235   10.00868
      H1    12.32493   16.25855    9.84400
       H     7.28711   12.29014   -0.14442
       O     7.60973   13.12921    0.22305
      H1     8.45172   13.31655   -0.10140
       H    13.53083   12.25110    9.92698
       O    14.38048   12.27768   10.45126
      H1    14.42765   11.51824   11.05374
       H    12.52350   15.40930    2.87631
       O    11.68342   15.21145    2.37813
      H1    11.85361   14.27402    2.04936
       H    13.79545   10.90734    3.32422
       O    13.01075   10.37647    3.04631
      H1    12.60898   10.39517    3.91354
       H    12.73651   13.07087    1.11874
       O    11.85516   12.70064    1.45367
      H1    12.03938   11.97932    2.05170
       H     6.00618   16.33851    6.02307
       O     6.37468   17.17939    5.66516
      H1     6.55867   17.61905    6.52085
       H     9.74774   12.21121    3.41038
       O     9.49965   11.45736    2.94448
      H1     8.56590   11.62760    2.85517
       H     4.30111   11.64045    0.90781
       O     4.03483   12.08421    1.75767
      H1     3.11115   11.81332    1.96371
       H    10.74006   18.10192   12.36414
       O    10.61487   17.74555   13.26394
      H1    10.59635   18.53456   13.85469

