180
frame 1 | Written by MDAnalysis XYZWriter (release 2.4.3)
       H   -18.08460    5.79764    9.96244
       O   -18.48930    6.68413   10.16557
      H1   -18.66184    7.02697    9.28156
       H   -18.76189    3.90870   10.88969
       O   -18.13303    4.16820   10.18482
      H1   -17.32482    3.76711   10.58089
       H   -15.35275    7.24224   10.50411
       O   -15.66437    6.52321   11.06521
      H1   -16.60236    6.74669   11.26011
       H   -14.45174    1.09100    2.42425
       O   -14.20368    1.52683    3.23426
      H1   -14.73607    2.30517    3.31847
       H   -11.55348   10.23152    0.98212
       O   -12.11662   10.85135    1.47512
      H1   -12.64575   11.21632    0.74169
       H   -14.19686   10.05362    6.87720
       O   -15.03917    9.54031    6.85894
      H1   -15.09883    9.27700    7.81500
       H   -10.75951    1.99830    2.08375
       O   -11.14762    2.19193    2.98327
      H1   -12.09934    2.01662    2.73446
       H   -14.83727    7.73673   13.74495
       O   -14.27449    6.94035   13.48478
      H1   -14.66005    6.69689   12.59256
       H    -9.97598    5.13384    8.87245
       O    -9.92661    6.05506    9.03331
      H1    -9.51205    6.03039    9.93802
       H   -18.79315    9.77348    7.02315
       O   -18.54069   10.66412    7.15818
      H1   -17.58891   10.59764    7.16974
       H   -11.11622    3.00956    7.57230
       O   -10.32961    3.46000    7.77583
      H1    -9.97615    3.61668    6.83049
       H   -11.54750    9.95194    8.28078
       O   -10.62528    9.91155    8.52588
      H1   -10.21495    9.42676    7.77823
       H   -13.16365    1.24071    9.21968
       O   -13.14457    1.81712    8.48909
      H1   -12.67501    1.24901    7.82782
       H    -7.89858    4.45147    5.49122
       O    -7.10738    4.45648    5.97114
      H1    -6.55148    4.89611    5.29860
       H   -10.85583    7.77420    0.85357
       O   -10.90382    8.58506    0.30142
      H1   -11.68076    8.38001   -0.18295
       H   -15.98234    7.36851    4.82709
       O   -15.52395    7.29786    5.70207
      H1   -15.30880    8.21147    6.02268
       H   -10.44084    8.44381   11.47035
       O   -10.98830    9.20749   11.61949
      H1   -11.34091    9.43899   10.71879
       H   -10.71005    6.88330    3.23914
       O   -10.80210    6.63398    2.29374
      H1   -11.72617    6.23326    2.33434
       H   -17.82388    9.33509    3.64663
       O   -18.65114    9.49245    3.16764
      H1   -18.50297    9.05904    2.33885
       H   -19.25615   10.04197    9.62201
       O   -18.70320    9.81306   10.39347
      H1   -18.32547    9.05901    9.93110
       H    -8.04834    8.63899    3.68031
       O    -9.00655    8.77985    3.57434
      H1    -9.07999    9.67832    3.18693
       H   -12.44955    0.60631    5.06195
       O   -12.31193    0.51629    6.04901
      H1   -11.88505   -0.36635    6.09291
       H   -11.75963    6.69882    9.16618
       O   -12.74936    6.75378    9.09011
      H1   -13.10983    5.95714    8.83870
       H    -8.86202    6.08207    1.86832
       O    -7.99431    5.96315    1.48110
      H1    -7.81995    5.04040    1.66415
       H   -17.92220    2.57215    1.81691
       O   -18.14386    3.28886    1.20738
      H1   -18.16060    2.94014    0.30349
       H   -15.53018    4.22551   10.75490
       O   -15.84041    3.50354   11.34005
      H1   -16.12961    3.91361   12.15051
       H   -10.01813   12.33923    3.14330
       O   -10.02536   11.33484    3.02550
      H1   -10.88938   11.31047    2.62610
       H   -14.71919    1.33272    8.04745
       O   -15.58934    0.98847    7.74282
      H1   -16.09711    1.83205    7.78449
       H   -15.03778    8.78978   -0.77590
       O   -14.27873    9.04449   -0.21497
      H1   -14.76257    9.40940    0.53763
       H    -7.36735    6.31582    6.95271
       O    -7.66697    7.04761    7.53439
      H1    -8.25033    6.61914    8.15929
       H   -12.62784   11.79090    6.49280
       O   -12.70886   10.79356    6.56429
      H1   -12.75824   10.53178    5.60765
       H   -16.08224    4.20570    0.95629
       O   -15.15415    4.05719    0.89565
      H1   -14.79551    4.93158    0.81982
       H   -19.03063    0.26203    5.49232
       O   -18.83728    0.94471    4.82055
      H1   -17.87918    0.79800    4.73227
       H   -16.31264    6.36366    6.94287
       O   -16.47789    5.64327    7.66415
      H1   -15.56812    5.51234    7.96658
       H   -11.85979    9.76470    3.09942
       O   -12.10828    9.39876    3.95977
      H1   -11.29223    9.00014    4.28296
       H   -15.71481   11.41653    0.96731
       O   -15.78864   10.56298    1.40065
      H1   -15.79528   10.79937    2.34306
       H   -16.19047    3.97497    3.86796
       O   -15.27651    3.99370    3.55607
      H1   -15.33616    4.11934    2.56135
       H   -18.03469    8.85143   -0.00871
       O   -18.47495    9.62800    0.35571
      H1   -17.69227   10.02741    0.79150
       H    -9.17155   12.37856    7.09183
       O    -9.46484   12.30768    6.14802
      H1   -10.00750   11.54147    6.18077
       H   -15.77785    6.06816    2.88082
       O   -16.47790    6.66063    2.99351
      H1   -16.66902    6.89810    2.11892
       H   -10.03589    3.52953    4.15128
       O    -9.64861    3.90294    4.94572
      H1    -9.98958    4.76673    5.10267
       H   -17.63796    0.89001    8.96407
       O   -17.97030    0.10452    9.37804
      H1   -17.34271   -0.57118    9.07767
       H   -16.92918    6.40615   -0.54621
       O   -17.11595    7.07924    0.13021
      H1   -17.97779    6.71529    0.42318
       H   -10.76274    6.88103    6.12008
       O   -10.78132    6.37498    5.30993
      H1   -11.73112    6.22553    5.27614
       H   -13.32804    6.20148   -0.05141
       O   -13.57025    6.43302    0.87795
      H1   -13.82659    7.38194    0.73820
       H   -13.88603    4.36207    7.45455
       O   -14.21280    4.45238    8.37622
      H1   -13.87162    3.63510    8.76794
       H   -13.95690    0.91625   11.85457
       O   -14.03439    1.42994   11.09457
      H1   -14.90680    1.79085   11.13528
       H   -12.45282    2.29235   11.40021
       O   -11.65890    2.65646   11.82481
      H1   -11.99274    3.46372   12.20679
       H   -14.31569    6.12146    5.74243
       O   -13.51900    5.55915    5.61568
      H1   -13.73851    5.21159    4.71055
       H   -14.06417   13.32659    2.05372
       O   -14.09715   12.64725    2.73611
      H1   -13.37249   12.08814    2.38151
       H    -8.98354    8.89409    5.39230
       O    -9.04575    8.82671    6.35911
      H1    -8.48696    8.05171    6.55792
       H   -15.27184   -1.54525    6.07414
       O   -14.37439   -1.50154    6.45319
      H1   -14.33411   -0.54233    6.50782
       H   -16.74603    4.08844    7.20310
       O   -17.18012    3.18245    7.05192
      H1   -18.08048    3.38080    7.29048
       H   -19.80535    7.06887    7.60864
       O   -19.24876    7.81452    7.29288
      H1   -18.66560    7.27665    6.69908
       H   -15.60292    4.42160   -0.88643
       O   -16.10854    4.87210   -1.59169
      H1   -15.92904    4.12346   -2.16007
       H   -13.78433   10.62521   11.52675
       O   -13.69075   10.92195   10.58871
      H1   -14.38485   11.55794   10.53382
       H   -14.43050    9.48364    9.85152
       O   -14.72256    8.61644    9.50260
      H1   -13.87995    8.10968    9.41096
       H   -17.78139    3.49020    5.39933
       O   -17.82587    3.78401    4.46561
      H1   -18.22780    4.61956    4.52568
       H   -15.99226   11.54778    4.18238
       O   -16.28343   10.58377    4.14402
      H1   -15.43328   10.17058    4.42948
       H   -15.41083    0.54260    4.29861
       O   -16.13062    0.45157    5.05535
      H1   -15.81437    1.12649    5.69526

