180
frame 1 | Written by MDAnalysis XYZWriter (release 2.4.3)
       H     9.57358    7.40851  -11.20187
       O     9.65873    8.01550  -10.49759
      H1     9.96299    7.46150   -9.74861
       H    11.32221   10.71243  -14.71022
       O    11.49651   11.57620  -14.44767
      H1    12.35647   11.78627  -13.96282
       H    12.76531    2.65091  -17.52623
       O    13.61649    3.16600  -17.60052
      H1    14.30255    2.50472  -17.65622
       H    12.99090   -1.07084  -18.03341
       O    13.79884   -0.80248  -17.57778
      H1    14.44344   -1.52547  -17.75761
       H     6.87055   -0.48008  -18.44625
       O     6.11380   -0.11058  -18.92965
      H1     5.51410    0.21013  -18.21821
       H    13.69948    1.27361   -9.96825
       O    13.60949    0.64736   -9.25311
      H1    13.12464   -0.04873   -9.71965
       H    18.25373    4.20131  -17.38359
       O    18.16624    3.59832  -18.07994
      H1    18.76947    2.88859  -17.82342
       H    11.09816    8.33823  -15.84655
       O    12.00166    8.40101  -16.15396
      H1    11.99917    8.25663  -17.10644
       H    12.48109    5.02399  -14.85305
       O    12.68598    4.45535  -14.12776
      H1    12.97645    5.03811  -13.45204
       H     4.87729    5.20259  -19.39936
       O     4.13851    4.85138  -18.92336
      H1     4.06322    5.39278  -18.14736
       H    10.33014   -1.45568  -18.66835
       O    11.10412   -1.48515  -18.03007
      H1    11.33593   -2.45638  -18.16588
       H     8.46184   -1.07564  -16.13058
       O     8.14455   -0.30874  -16.65012
      H1     8.02966    0.31553  -15.94654
       H    16.88884    8.06785  -16.37397
       O    17.70580    8.17004  -16.83326
      H1    18.04644    7.28460  -16.81735
       H     7.78270    9.91742  -16.95700
       O     8.67629   10.25980  -16.74516
      H1     8.89479   10.74014  -17.55928
       H     9.67460    6.21254  -18.49382
       O    10.37617    6.06522  -17.75489
      H1    11.18400    5.97845  -18.23507
       H    12.07767    9.60304  -12.21403
       O    11.59332    9.81499  -11.40358
      H1    11.00358    9.10812  -11.16029
       H     6.10534    8.32605  -14.38791
       O     6.67442    7.93127  -15.09528
      H1     6.57221    8.59361  -15.82483
       H     5.84701    0.88665  -13.01120
       O     5.49507    0.11290  -13.50899
      H1     6.23653   -0.31291  -13.92158
       H     9.53426    5.88510  -13.49680
       O     9.69247    6.62005  -12.90504
      H1     9.58926    7.39367  -13.47858
       H    10.00747   -2.73452  -11.91233
       O    10.36182   -3.49328  -12.35474
      H1    10.26109   -3.28361  -13.32072
       H     8.27463    4.61047  -14.98645
       O     9.10232    4.57256  -14.51877
      H1     9.41401    3.69928  -14.65161
       H    16.77475   -1.92502  -17.09302
       O    15.88255   -2.19142  -16.86435
      H1    15.97157   -3.17937  -16.73132
       H    13.38218   -1.10284  -14.28453
       O    12.78610   -1.41024  -14.95435
      H1    13.30125   -1.24349  -15.77039
       H    13.93659    9.81433  -15.49119
       O    14.72887   10.42133  -15.50774
      H1    14.92844   10.43257  -16.43205
       H     9.63974   -1.84059  -14.41854
       O    10.29999   -2.33243  -14.86728
      H1    11.02077   -1.71380  -14.99509
       H     5.48453    7.03175  -16.76909
       O     4.60924    6.62741  -16.86718
      H1     4.04718    7.38465  -16.66946
       H     5.66281    2.45102  -11.16170
       O     6.21585    2.43881  -11.93640
      H1     7.07338    2.68949  -11.50987
       H     6.49197    6.40733   -9.24070
       O     6.66662    5.64597   -9.87944
      H1     6.90000    6.03138  -10.76815
       H    13.19654   -1.36949  -11.28976
       O    12.59030   -1.52158  -10.45811
      H1    11.65576   -1.35256  -10.66691
       H     7.70750    6.94784  -18.71430
       O     7.33934    6.84671  -17.82364
      H1     8.10047    7.10188  -17.25363
       H     9.01815    0.92115  -18.07254
       O     9.37807    1.48690  -18.77968
      H1     8.97767    2.32181  -18.65821
       H    13.56921    4.80181  -18.14924
       O    13.57511    5.79421  -18.02542
      H1    13.92816    6.23493  -18.78135
       H    17.25126    2.82791  -11.86803
       O    16.34280    3.12661  -11.73680
      H1    16.34857    4.08634  -11.88897
       H     9.07745    3.86253  -11.89474
       O     8.75320    3.21127  -11.26767
      H1     8.74381    3.73480  -10.40186
       H     4.99246   -1.58294  -16.25896
       O     5.48309   -2.40810  -16.26875
      H1     6.33241   -2.08401  -16.62251
       H     7.28983    5.13108  -17.37617
       O     7.31033    4.29456  -16.88972
      H1     6.42369    4.30558  -16.53068
       H    13.01827    8.27368  -13.11697
       O    13.28910    9.16892  -13.27946
      H1    14.24768    9.08027  -13.22339
       H    15.96761    5.69830  -15.06117
       O    16.63897    5.10244  -14.61102
      H1    16.10546    4.27642  -14.76037
       H    14.80372    2.30953  -12.23919
       O    13.99513    1.74832  -12.37005
      H1    13.58037    2.08040  -13.17848
       H     9.61810   -1.22807   -9.91181
       O     9.76667   -1.19465  -10.87822
      H1     9.81672   -0.26783  -11.07902
       H    16.99707    0.56969  -18.38042
       O    17.66611   -0.09627  -18.36766
      H1    18.21551   -0.15249  -19.15786
       H    11.50269    6.56615  -12.60773
       O    12.45038    6.52000  -12.38533
      H1    12.68201    6.99071  -11.56195
       H     8.95870    9.36666  -15.03029
       O     9.52161    9.29425  -14.24931
      H1     9.00734    9.60300  -13.51655
       H     8.16036   -1.12883  -12.86553
       O     8.50495   -0.71255  -13.65171
      H1     9.17374   -0.11485  -13.33586
       H    14.05587    3.38958  -15.52928
       O    14.92702    3.16848  -15.15242
      H1    15.16912    2.41449  -15.69689
       H    10.40246    2.12915  -17.27529
       O    10.99883    2.61432  -16.70703
      H1    10.74688    3.49809  -16.67817
       H     9.75244    1.84923  -12.24871
       O    10.19237    1.08123  -12.60875
      H1    10.86453    1.33475  -13.26476
       H     9.10863   -3.10907  -16.16236
       O     8.19678   -3.01480  -16.52193
      H1     7.76414   -3.56992  -15.80932
       H     6.84508    3.37214  -18.17559
       O     6.53954    2.95553  -18.98128
      H1     5.64612    3.27710  -19.09967
       H    14.51550    6.76460  -16.67887
       O    15.21770    7.05121  -16.05677
      H1    14.75574    7.68049  -15.48807
       H     5.74281    6.01364  -14.82723
       O     5.61811    5.06799  -14.61571
      H1     6.01730    5.01822  -13.73783
       H     7.76535    6.36898  -12.78123
       O     6.86899    6.11278  -12.50432
      H1     6.42498    6.95544  -12.20648
       H    11.33943    9.27825  -19.33034
       O    11.97427    8.55673  -19.16870
      H1    12.52737    8.61341  -19.92931
       H    15.52979   -1.16406  -13.15385
       O    14.84141   -0.95262  -12.51320
      H1    14.70312    0.01204  -12.51851
       H    16.79043    6.91715  -11.66965
       O    16.76437    5.98284  -11.92430
      H1    16.93969    5.88981  -12.82170
       H    12.25302    0.44965  -14.81192
       O    12.07601    1.37063  -14.58687
      H1    11.80249    1.80813  -15.38000
       H    11.67582   -4.53527  -18.31901
       O    12.34033   -3.83966  -18.45345
      H1    12.81926   -3.80036  -17.60655
       H     2.67797    4.91611  -13.25199
       O     3.17961    5.71600  -13.18592
      H1     4.05697    5.53101  -13.55048
       H    16.51357    2.40461  -18.29038
       O    15.89978    1.69249  -18.03284
      H1    15.42106    1.44631  -18.85242
       H     7.93168   -3.39413  -18.40091
       O     7.88514   -3.93360  -19.19531
      H1     7.36954   -3.37595  -19.78889

