180
frame 2 | Written by MDAnalysis XYZWriter (release 2.4.3)
       H     5.37823   11.69505   15.25033
       O     6.19902   11.27548   14.95368
      H1     6.91828   11.93966   15.14700
       H     3.10238   11.98123   18.95959
       O     2.29679   12.42924   19.38764
      H1     2.44683   13.39133   19.28226
       H    10.38038   14.50141   13.11683
       O    10.12015   13.91535   12.33224
      H1     9.20924   14.18718   12.32776
       H     0.79915   15.02296   16.77902
       O     1.64280   14.87403   17.23335
      H1     1.40198   14.93113   18.18541
       H     7.73631   10.37930   18.58553
       O     7.46453   11.30053   18.86061
      H1     7.12646   11.13982   19.76691
       H     3.12111   17.53429   14.66504
       O     4.07139   17.53931   14.86262
      H1     4.40015   17.73675   13.97865
       H     0.45997   12.30419   12.39165
       O     0.65872   11.99879   11.52590
      H1     1.37937   11.42452   11.67363
       H     2.88450    9.85646   12.42218
       O     3.01993   10.77843   12.62049
      H1     2.70311   10.73085   13.53171
       H     4.39474   11.67440   17.49298
       O     4.71986   11.44987   18.34746
      H1     5.71229   11.57443   18.28287
       H     3.23583   12.85497   13.21257
       O     3.52711   13.71784   12.94553
      H1     4.29021   13.47842   12.42395
       H    -2.49636   17.99811   10.71176
       O    -2.76975   18.55422   11.45124
      H1    -2.32439   18.13844   12.19629
       H     0.29989   19.97418   19.37000
       O     0.25802   19.25637   18.70975
      H1     1.10277   18.70253   18.72979
       H     9.84031   17.97262   17.62997
       O    10.44879   17.20675   17.79154
      H1    11.28021   17.69381   17.72613
       H    -1.27815   14.74892   15.83548
       O    -0.64253   15.32474   15.38111
      H1    -0.72604   14.99952   14.48886
       H    10.43787   19.81145   15.34621
       O    11.31522   19.44157   14.96226
      H1    11.74604   19.19019   15.74635
       H     3.68262   19.67965   12.47286
       O     4.39880   19.21045   11.99423
      H1     3.90116   18.63723   11.32494
       H     1.17267   16.96706   14.92862
       O     1.50529   17.46154   14.18125
      H1     1.28786   16.89989   13.38652
       H     9.24365   11.69387   14.14918
       O     9.00668   12.29298   14.89123
      H1     9.17106   13.21137   14.59448
       H    10.62755   15.63300   11.31741
       O    10.72701   16.58898   11.49754
      H1    10.45250   16.80554   12.44627
       H    -6.02903   16.85864   18.21530
       O    -6.25572   16.40908   17.36565
      H1    -5.88796   17.06383   16.80053
       H     9.00850   17.76666   14.12479
       O     9.91947   17.40468   14.23345
      H1    10.43533   18.11017   14.62717
       H    11.39314   15.11150   15.09119
       O    11.64253   15.10661   14.09298
      H1    11.47308   15.99410   13.79407
       H    -2.53540   13.90223   17.84379
       O    -1.72019   13.82380   17.35148
      H1    -1.74937   12.85179   17.42985
       H     0.05478   18.62033   13.85605
       O    -0.69799   19.02880   13.43337
      H1    -1.21429   19.31334   14.16166
       H     7.73650   15.38903   14.50472
       O     8.42811   15.09007   15.10228
      H1     9.13672   15.61770   14.76388
       H    13.51587   17.28794   18.20127
       O    13.64586   16.74654   19.02481
      H1    14.59733   16.81654   18.97918
       H     9.96836   11.65814   15.97600
       O    10.43886   11.23867   16.78567
      H1     9.93800   10.36266   16.82504
       H    -3.89992   15.30688   14.98357
       O    -3.49674   15.91164   14.38981
      H1    -3.39457   16.71616   14.93516
       H     1.17920   15.51617   11.16816
       O     1.02936   16.33947   11.62800
      H1     0.23059   16.13857   12.06646
       H     2.30181   16.86713   17.96767
       O     2.45829   17.58072   18.53003
      H1     2.91748   18.14461   17.89132
       H    -3.14119   18.05873    8.65259
       O    -2.77303   17.16014    8.81289
      H1    -1.86056   17.39693    8.92967
       H     6.16112   16.24496    8.36435
       O     6.26894   15.59933    7.69411
      H1     5.48441   15.08461    7.74074
       H     6.76829   18.09693   14.27046
       O     7.40435   18.06379   13.57651
      H1     6.84728   17.73986   12.81690
       H     4.13853   15.41548   19.72018
       O     3.88610   14.63040   19.20771
      H1     4.52119   14.59195   18.44555
       H    10.25639   19.52082    9.69660
       O     9.56345   18.78752    9.88495
      H1    10.23090   18.13818   10.16296
       H     6.66075   17.79169    9.98645
       O     6.83950   18.06644    9.12905
      H1     7.76814   18.38133    9.25508
       H    10.90232   15.75323   17.26132
       O    10.93338   14.88030   16.77592
      H1    10.06895   14.50024   17.17185
       H     1.20253   13.54058   10.74729
       O     1.55781   14.18637   10.12829
      H1     0.91290   14.17966    9.41209
       H    -5.17384   15.17496   17.76232
       O    -4.43339   14.51776   17.83478
      H1    -4.84341   14.08836   18.62496
       H     0.77702   18.38410    9.03588
       O     0.07403   17.73648    9.28333
      H1     0.44266   17.18001    9.95327
       H     5.44924   14.29075   16.08010
       O     5.35586   14.17407   17.07906
      H1     6.30695   14.42241   17.25930
       H     5.66689   18.35343   18.96464
       O     6.26602   18.24866   19.76494
      H1     6.26688   17.30436   19.76751
       H    -1.90013   15.16309   11.52178
       O    -1.44257   15.27962   12.41392
      H1    -2.14801   15.31625   13.03638
       H     4.27411   18.66846   16.53858
       O     4.15483   19.24814   17.31533
      H1     3.71957   19.98346   16.87224
       H    12.48279   19.50827   17.69377
       O    12.72476   18.73054   17.12781
      H1    13.65318   19.06635   16.91492
       H     0.28459   10.41624   17.82216
       O     0.08462    9.87304   18.61171
      H1    -0.08358    9.07796   18.17243
       H    -0.18574   16.19726    8.21368
       O    -0.14207   15.24088    7.92658
      H1     0.63641   15.24504    7.27467
       H    -7.20498   18.68327   15.89429
       O    -6.75095   18.79652   15.02468
      H1    -5.86100   19.00397   15.36051
       H     8.11077   11.46710   11.50861
       O     7.53979   12.18150   11.07564
      H1     6.86818   11.64102   10.60770
       H     4.64582   13.88168    8.92556
       O     4.29162   14.42466    9.69296
      H1     3.35678   14.18934    9.71656
       H     2.57113   11.46276   15.99662
       O     3.32736   11.93543   15.67349
      H1     3.29770   12.78250   16.12630
       H     1.27759   12.18514   18.08297
       O     0.99131   11.99603   17.15989
      H1     0.71845   12.91801   16.92347
       H     7.48656   13.87305   11.47825
       O     7.59890   14.61881   12.05896
      H1     8.15915   15.22318   11.48756
       H     5.22517   15.97912   10.61910
       O     5.82728   16.48882   11.13252
      H1     6.34913   15.87197   11.68707
       H     5.10111   10.13730   12.34909
       O     5.98106    9.85650   12.68626
      H1     6.11431   10.58668   13.27671
       H     4.83150   14.53551   13.85550
       O     5.28414   14.92816   14.60157
      H1     4.83697   15.74757   14.78786
       H     9.13811   11.75863   19.48772
       O    10.00117   12.12891   19.70891
      H1    10.60295   11.92139   18.98718
       H    -0.76097   17.78000   18.96000
       O    -1.62791   17.40092   18.66825
      H1    -1.26677   16.69429   18.10230
       H    -3.00202   17.38268   17.13933
       O    -3.42374   17.76937   16.34136
      H1    -3.02025   18.68361   16.32448
       H     8.31458   14.63726   16.89499
       O     8.51686   14.22207   17.80386
      H1     8.47895   13.27335   17.63862

