180
frame 4 | Written by MDAnalysis XYZWriter (release 2.4.3)
       H    14.07665  -18.84737   -3.64238
       O    13.77880  -18.79149   -4.56626
      H1    14.04479  -19.57806   -4.95874
       H    13.60707  -17.16492  -18.12413
       O    14.54404  -16.96995  -18.29191
      H1    14.77074  -17.71861  -18.92824
       H    16.76885  -16.93790   -2.02276
       O    17.47450  -16.56256   -2.63384
      H1    18.27860  -16.90446   -2.25826
       H    14.57489   -9.70553  -13.56330
       O    14.67273   -9.57315  -14.48985
      H1    13.78613   -9.52159  -14.79120
       H     6.58733  -17.02816  -10.07130
       O     7.12174  -17.53569  -10.75501
      H1     8.04898  -17.38908  -10.41227
       H    16.08296  -16.19587  -11.08778
       O    15.21342  -15.85935  -11.31329
      H1    14.69885  -16.70771  -11.34994
       H    14.48923  -19.85380  -16.84178
       O    15.06506  -19.23514  -16.38706
      H1    14.41822  -18.72455  -15.85095
       H    12.28194  -10.89142   -9.36038
       O    12.67536  -11.33780   -8.58460
      H1    13.35846  -10.71665   -8.22578
       H    11.53731  -16.27292   -4.33473
       O    12.08714  -16.71088   -3.61087
      H1    12.52665  -17.43508   -4.08184
       H    17.31684  -16.04837   -7.81088
       O    18.05354  -16.70248   -7.87196
      H1    17.89152  -17.34498   -7.20512
       H    13.24339  -17.87742   -7.51254
       O    13.86566  -18.09067   -8.21823
      H1    14.56324  -18.62182   -7.83551
       H    15.38023  -16.86221  -15.32174
       O    14.72275  -17.14351  -14.61160
      H1    15.19657  -17.48842  -13.81334
       H    11.09150  -14.03545  -14.78207
       O    11.86845  -14.60241  -14.88607
      H1    12.51040  -14.35545  -14.25208
       H     8.35391  -15.02126   -7.57840
       O     8.90580  -15.76740   -7.36523
      H1     9.22061  -15.56239   -6.45881
       H     9.80784  -17.37011  -13.58265
       O     8.83969  -17.43345  -13.61608
      H1     8.77438  -18.38595  -14.00613
       H    18.38315  -12.72323   -6.79514
       O    19.03923  -12.94663   -6.16375
      H1    19.36134  -13.84816   -6.46212
       H    10.69714   -9.83179  -10.34243
       O    11.67040  -10.02058  -10.61610
      H1    11.48624  -10.43294  -11.50094
       H    17.89799  -12.90077  -11.03988
       O    18.64103  -12.40153  -10.70684
      H1    19.26846  -12.97344  -10.29292
       H    18.01509  -11.08848  -13.20318
       O    18.89776  -11.50813  -13.29398
      H1    19.12133  -11.86127  -12.43082
       H    18.75285  -13.53936  -15.92278
       O    18.74110  -13.44365  -16.90648
      H1    17.85931  -13.78153  -17.10773
       H    19.71997  -10.30336   -6.74719
       O    18.92308   -9.84846   -6.43661
      H1    18.19308  -10.49663   -6.42593
       H    11.02575  -16.04497  -10.85203
       O    11.67234  -15.84711  -11.56838
      H1    12.56844  -15.94228  -11.20950
       H    16.65819  -12.61673   -8.87600
       O    17.23578  -12.00066   -8.43759
      H1    17.82705  -11.75898   -9.17468
       H    15.95121  -13.98669   -2.57905
       O    15.71664  -13.61322   -3.42510
      H1    16.00158  -12.67443   -3.38322
       H    11.78136  -17.19081  -12.93534
       O    11.72897  -17.86289  -13.63374
      H1    11.91135  -17.42776  -14.48329
       H    10.26940  -11.90502   -7.53511
       O     9.75469  -11.29375   -6.88725
      H1    10.38173  -10.56122   -6.78565
       H    16.42151  -15.44051  -18.52706
       O    17.10500  -15.39756  -19.23854
      H1    16.81558  -14.57663  -19.66757
       H    13.87844  -12.76466   -3.82114
       O    13.05650  -12.33665   -3.60728
      H1    13.17478  -12.21140   -2.62070
       H    18.05304  -16.98690  -11.43624
       O    17.47871  -17.24296  -10.63317
      H1    17.85041  -16.89087   -9.85273
       H    19.91039  -15.66857  -12.31826
       O    18.95792  -15.91766  -12.60342
      H1    19.04287  -16.52809  -13.42135
       H    14.44140  -13.42249  -13.72741
       O    13.81749  -14.11595  -13.25001
      H1    14.47611  -14.57126  -12.71269
       H    16.39744  -11.42295   -6.88843
       O    16.26588  -10.81347   -6.11924
      H1    15.95711   -9.98375   -6.55963
       H    10.52469  -17.62843   -9.28425
       O     9.86858  -17.00158   -9.57631
      H1     9.62893  -16.51711   -8.80911
       H    18.68994   -7.77541   -9.12007
       O    18.54183   -8.06289   -9.98863
      H1    18.96820   -7.30789  -10.49941
       H    17.10738  -18.17185   -5.59279
       O    17.66231  -18.82625   -6.04673
      H1    16.95304  -19.27980   -6.58901
       H    15.41938  -18.81153   -1.59164
       O    15.01429  -17.98872   -1.80380
      H1    14.72747  -17.70832   -0.90009
       H    15.22412  -13.18831  -11.50255
       O    15.93606  -12.52283  -11.53112
      H1    15.88544  -12.24941  -12.42127
       H    16.40604  -10.04234  -16.04137
       O    16.27525  -10.74967  -16.66255
      H1    17.15371  -11.02781  -16.73026
       H    16.44281  -10.08459   -9.36183
       O    16.04373   -9.27585   -9.74117
      H1    16.81471   -8.61693   -9.75099
       H    16.51434   -8.53917  -14.07340
       O    17.28727   -8.75480  -14.65451
      H1    18.07491   -8.65191  -14.10282
       H    17.06242  -16.65347  -16.53778
       O    16.24000  -16.10206  -16.48012
      H1    15.65043  -16.64141  -17.05818
       H    15.11200  -15.60363   -5.67487
       O    15.14954  -14.66381   -5.96725
      H1    15.58848  -14.26441   -5.16781
       H    16.36911  -11.11866   -4.47828
       O    16.53404  -11.08172   -3.49393
      H1    16.19241  -10.18923   -3.29299
       H    11.31727  -13.74744   -8.07337
       O    10.43379  -13.47041   -8.26344
      H1     9.87798  -14.17254   -7.86187
       H    11.52507  -17.03538  -17.59192
       O    11.40735  -17.33709  -18.48502
      H1    10.69325  -16.70086  -18.74586
       H    15.75419  -14.49946   -7.55905
       O    15.86317  -14.40422   -8.52886
      H1    15.08799  -14.90599   -8.92157
       H    17.74019  -17.01385  -19.28011
       O    17.97123  -17.86812  -18.86385
      H1    18.40917  -18.36648  -19.58415
       H    11.82972  -16.10885  -15.89544
       O    12.24910  -16.94924  -16.08602
      H1    13.13441  -16.76123  -15.73709
       H    10.20718  -12.11670  -13.07521
       O    10.84932  -11.40755  -13.15204
      H1    11.71731  -11.82029  -13.29412
       H    13.13639  -12.90602   -8.11765
       O    13.13192  -13.75065   -7.65269
      H1    13.79282  -13.64744   -6.92308
       H    17.94826  -14.31192  -13.61134
       O    17.96473  -13.73711  -14.36811
      H1    18.46264  -12.94081  -14.06302
       H    18.37683  -18.41732  -13.84493
       O    18.65557  -17.71146  -14.41604
      H1    19.37182  -18.13783  -14.89128
       H    19.44701   -9.98845   -4.76549
       O    19.60881  -10.47710   -3.93649
      H1    18.74410  -10.95041   -3.87141
       H    14.93539   -9.56154  -10.94086
       O    14.25098   -9.75860  -11.62377
      H1    13.55393  -10.27119  -11.22980
       H    12.48664  -13.51567  -16.63584
       O    13.01531  -12.83373  -17.10911
      H1    13.64947  -13.41503  -17.60813
       H    16.26959  -16.89330   -4.07826
       O    15.82475  -17.16951   -4.97011
      H1    15.14466  -17.81209   -4.61424
       H    10.31789  -13.50376  -10.31875
       O    10.30111  -13.55688  -11.27179
      H1    11.05339  -14.20057  -11.44097
       H    14.55277  -15.23194  -18.82168
       O    14.53493  -14.26579  -18.92301
      H1    14.67317  -14.15822  -19.88469
       H    16.37457  -12.86836  -14.31757
       O    15.67301  -12.24949  -14.13041
      H1    15.48901  -11.95294  -15.01939
       H    13.27911  -18.23126  -12.20185
       O    13.99564  -18.16621  -11.47566
      H1    13.60377  -18.59693  -10.70695

