180
frame 11 | Written by MDAnalysis XYZWriter (release 2.4.3)
       H     8.27023   -0.05814    0.62983
       O     8.70101   -0.51324   -0.12451
      H1     9.25771   -1.23996    0.27667
       H     5.57360   -0.54559    2.88422
       O     6.53893   -0.66218    2.71057
      H1     6.58240   -1.42752    2.08174
       H    11.86173   -7.90192    9.73896
       O    10.96575   -7.60419    9.98376
      H1    11.07442   -6.73614   10.42194
       H     8.49583   -8.94241    7.10318
       O     8.15330   -8.87051    6.15824
      H1     8.75896   -8.42339    5.60579
       H     5.72401    2.71023   11.89426
       O     5.41209    1.83417   11.68201
      H1     5.15880    1.39821   12.48307
       H     6.92337    3.51825    4.52790
       O     6.81396    2.73250    5.03994
      H1     7.60310    2.55584    5.55173
       H     2.98531   -1.84106   11.17108
       O     3.92193   -1.75170   11.47126
      H1     4.38960   -1.28515   10.77363
       H     8.73192   -4.28973   12.14556
       O     8.85108   -4.20688   11.16161
      H1     8.29894   -4.90349   10.76440
       H     5.15332   -8.42025    3.53888
       O     4.75011   -7.61140    3.83350
      H1     5.45808   -6.94550    3.86894
       H     7.40275   -3.51404    0.64210
       O     6.86363   -3.18161    1.36633
      H1     6.01853   -2.95501    0.87897
       H     5.24220   -7.95226    5.47505
       O     5.68144   -8.13540    6.30998
      H1     6.58717   -8.42991    6.00947
       H    14.26109   -7.59148    9.71792
       O    13.57275   -7.49723    9.05126
      H1    13.31220   -6.54924    8.94584
       H     4.82187   -4.43636    7.83748
       O     5.27975   -3.94715    8.54814
      H1     5.76067   -4.57636    9.11419
       H     2.94032   -3.66742    6.66369
       O     3.33381   -4.56815    6.56508
      H1     2.62246   -5.15171    6.86679
       H    10.00865   -4.99793    4.15944
       O    10.08608   -4.03188    4.12154
      H1    11.02956   -3.82331    3.98304
       H    10.72376   -4.33341    5.97934
       O    10.57698   -4.52563    6.96605
      H1    11.45283   -4.67178    7.37526
       H     5.98162   -1.74299    5.91527
       O     5.17326   -1.25083    5.85372
      H1     5.17386   -0.70501    6.66013
       H     5.64288    3.28256    6.35463
       O     5.04342    3.30340    7.10160
      H1     5.46628    3.93378    7.64791
       H    12.19474    4.72641    6.58146
       O    11.45756    4.49428    7.19110
      H1    10.96674    3.80790    6.71089
       H     6.03795   -4.70424    4.44834
       O     6.56777   -5.21409    3.87000
      H1     6.58891   -4.69190    3.06309
       H     9.11277   -2.35246    4.10869
       O     9.04316   -1.45804    3.79692
      H1     8.17504   -1.42831    3.43861
       H    14.61397   -1.59774   10.81024
       O    13.75335   -1.25340   11.18876
      H1    13.57141   -0.49154   10.61084
       H    13.14501   -3.79377    2.30413
       O    12.67594   -4.34454    2.94179
      H1    13.28657   -4.57454    3.68408
       H    11.65187   -5.98331    2.46290
       O    10.96873   -6.66247    2.27195
      H1    11.49115   -7.57510    2.20370
       H    14.53090    3.47946    4.91150
       O    14.90538    2.72597    4.36076
      H1    14.22361    2.07158    4.47768
       H     7.01081   -6.66764    6.74806
       O     7.72469   -5.99967    6.78489
      H1     8.54856   -6.45166    6.83573
       H    10.95781   -2.18675    1.46271
       O    10.64675   -2.54284    0.62665
      H1    10.20879   -3.41262    0.80800
       H     6.76253   -6.59757    9.96691
       O     7.07661   -5.69476    9.79475
      H1     7.58933   -5.82036    8.99055
       H    13.71924   -2.84177    6.51970
       O    14.50819   -3.13491    6.04189
      H1    14.52578   -2.47514    5.32264
       H     9.61293    5.40979    3.90037
       O     9.95946    5.79436    4.70366
      H1    10.06234    5.04795    5.35473
       H     3.89109   -1.09512    4.56411
       O     3.39768   -0.85570    3.77225
      H1     2.78789   -1.57994    3.54226
       H     9.26246    2.76045    7.13175
       O     9.61205    2.68080    6.24326
      H1    10.07097    1.85587    6.16379
       H     4.43370    2.21282    2.88872
       O     4.64956    2.04967    1.95625
      H1     5.07112    2.87231    1.58695
       H    10.28049   -5.29308   -0.23110
       O     9.53067   -4.94689    0.28629
      H1     9.52460   -5.60435    1.03016
       H    10.57638   -0.29650   12.03150
       O    10.80422   -0.32950   11.09731
      H1    10.09672   -0.80382   10.69022
       H    10.29838    3.30399    1.84643
       O    10.44358    2.38718    1.55194
      H1    10.76612    2.51796    0.63816
       H     8.13728   -6.05773    3.90829
       O     8.93903   -6.65861    4.09082
      H1     9.65000   -6.51000    3.43016
       H    10.57274   -1.29247    3.29571
       O    11.46859   -1.42850    2.92343
      H1    11.92942   -0.57846    2.93742
       H    13.89390   -6.24356    6.24426
       O    13.29938   -5.92292    5.51661
      H1    13.47886   -6.44439    4.70621
       H     8.97736   -1.84710    8.92453
       O     8.69238   -1.68297    9.86198
      H1     8.70504   -2.56728   10.32969
       H     6.63602   -0.49877    9.64567
       O     5.73265   -0.16335    9.74938
      H1     5.71724    0.58948   10.35864
       H     4.42571   -3.34153   11.65178
       O     4.75552   -4.23700   11.59059
      H1     5.61592   -4.16987   11.23446
       H     9.98245   -2.71490    7.20975
       O     9.65102   -1.79385    7.23404
      H1     8.88124   -1.83769    6.68098
       H    12.85137   -2.00183    8.46767
       O    12.46526   -1.28844    7.82553
      H1    11.56257   -1.44025    7.89970
       H     3.37366   -1.04159    7.72115
       O     3.04953   -1.93767    7.74271
      H1     3.69658   -2.36335    8.33149
       H     3.82163   -4.14104    4.98940
       O     4.31229   -3.58954    4.32357
      H1     4.61438   -2.82954    4.84453
       H    13.00246    4.69013    9.69953
       O    12.33251    3.94799    9.83471
      H1    11.80169    4.08612    9.03573
       H    15.08914   -0.81988    4.03810
       O    14.56878   -1.61466    3.87100
      H1    13.65734   -1.26671    3.93661
       H    10.43576   -6.23887    7.41309
       O    10.12712   -7.17254    7.41868
      H1    10.33965   -7.58111    8.28034
       H     6.59221   -3.17437    7.50468
       O     7.11724   -3.33225    6.66246
      H1     7.37537   -4.30088    6.62985
       H    12.36605    1.79655    3.48111
       O    12.67445    1.03061    3.94174
      H1    11.91651    0.76499    4.46873
       H    12.28795   -4.41749    9.50139
       O    12.74591   -4.38712    8.66035
      H1    13.75101   -4.48288    8.89389
       H     4.75478    0.46779    8.62153
       O     4.10156    0.74798    7.92991
      H1     4.38353    1.54297    7.52782
       H    12.62045    1.86868    9.78768
       O    13.13362    1.17957    9.37645
      H1    12.67596    0.55998    8.79183
       H     8.55728    2.52000    9.63616
       O     8.61920    1.76257    9.09730
      H1     9.00811    1.06715    9.60359
       H    10.45451   -4.72354   10.90697
       O    11.42842   -4.90365   10.95013
      H1    11.67007   -4.79877   11.86905
       H    11.63800   -1.25178   13.90614
       O    11.79665   -2.14040   13.55734
      H1    12.14394   -1.91839   12.71412
       H    10.63254   -0.56566    5.94509
       O    10.58295    0.24160    5.39172
      H1     9.85145   -0.05890    4.80696
       H     7.90754    4.75490    9.76473
       O     8.57103    4.23460   10.23012
      H1     8.06812    4.17825   11.03516
       H     8.49679    1.51212    1.83600
       O     7.71099    1.41173    1.30118
      H1     7.09348    0.94332    1.84572

