180
frame 4 | Written by MDAnalysis XYZWriter (release 2.4.3)
       H     6.29769   -4.70428   -4.04344
       O     5.88913   -5.55141   -4.25084
      H1     5.06510   -5.30132   -4.76662
       H     8.12024    1.58103   -2.30570
       O     7.68576    1.17931   -3.05402
      H1     8.29352    0.49200   -3.30115
       H     5.37426    0.41657   -4.28150
       O     5.49257    0.41707   -5.25167
      H1     5.86177   -0.47871   -5.42474
       H     6.33829    3.72692   -4.83740
       O     6.79590    3.77127   -3.94673
      H1     6.73326    2.85072   -3.62361
       H     5.13655    8.01107   -3.59466
       O     4.89433    7.57887   -4.48850
      H1     4.48053    8.33068   -4.94487
       H     6.22344   -4.23410    2.86704
       O     5.36394   -4.38756    2.44096
      H1     5.47885   -3.74527    1.69854
       H     6.50517    2.63979    3.60136
       O     6.73752    1.88579    3.03294
      H1     7.15144    1.30042    3.68902
       H    14.13344    2.46462   -0.55508
       O    14.43175    1.59830   -0.19953
      H1    15.40685    1.70320   -0.37805
       H    13.44244    2.05029   -7.08505
       O    12.98025    1.20975   -6.99660
      H1    13.11180    0.80174   -7.85291
       H     9.12821   -5.11583   -4.80725
       O     9.11976   -5.80233   -5.48156
      H1     8.26014   -6.30374   -5.29919
       H    14.02168    4.79819   -1.05219
       O    13.62099    4.09136   -1.60662
      H1    12.68637    4.19631   -1.48988
       H     8.75410    4.15260   -4.39535
       O     9.63888    4.20255   -4.77433
      H1     9.63514    3.51275   -5.47603
       H    11.92668   -4.46891   -0.28773
       O    11.41131   -4.14129    0.43981
      H1    11.04042   -3.28948    0.11883
       H    11.43063    5.75114   -7.08261
       O    12.07269    5.89370   -7.76925
      H1    12.77099    5.31218   -7.43726
       H     2.97602   -2.65364   -0.48711
       O     3.51713   -3.37870   -0.82718
      H1     4.30413   -3.20880   -0.34419
       H    14.81184    4.62070   -4.94406
       O    14.75136    3.83446   -4.40696
      H1    14.42307    4.16571   -3.54510
       H    11.23908    7.06054   -4.58329
       O    10.30149    6.84948   -4.64979
      H1    10.25064    5.84863   -4.68497
       H     5.90798    5.59531    0.73826
       O     6.19987    4.88344    1.34641
      H1     5.35031    4.63219    1.75894
       H     5.42929   -2.81840   -6.45714
       O     6.28795   -2.52531   -6.72261
      H1     6.65722   -3.25969   -7.22764
       H    13.39323   -2.27196   -1.16514
       O    13.72799   -1.56798   -0.58570
      H1    14.26956   -1.08795   -1.21685
       H    12.35676    0.57312   -0.73150
       O    11.62076    0.69070   -0.06756
      H1    11.87735    1.57512    0.30545
       H     6.14607    1.74793   -0.32008
       O     6.03256    2.29964   -1.09033
      H1     6.06895    1.62300   -1.77742
       H     4.14862    6.11854   -2.89503
       O     4.14735    5.92356   -1.94503
      H1     5.05515    5.96469   -1.62387
       H     9.77963    5.02724    0.03441
       O    10.53771    5.66636    0.18852
      H1    11.18087    4.90854    0.22923
       H    10.16552    2.76726   -1.73815
       O    10.80041    2.68253   -2.49439
      H1    10.35094    3.23611   -3.15764
       H     9.97985    1.37152   -0.41504
       O     9.09594    1.53349   -0.78818
      H1     8.91129    2.45570   -0.39851
       H     6.91854    7.29599   -0.28939
       O     6.64481    6.55284   -0.83075
      H1     7.30646    5.89715   -0.64943
       H     3.62585    0.05370   -3.69387
       O     4.11469    0.42456   -2.93588
      H1     3.61331    1.17850   -2.72921
       H     7.42789    7.65201    3.53717
       O     7.01878    6.78201    3.37021
      H1     6.93524    6.78262    2.46132
       H     2.99596    3.27325    3.21522
       O     3.85205    3.70698    3.02319
      H1     4.30820    3.54889    3.83393
       H    10.31409   -1.20730    0.15411
       O    10.32709   -1.67943    1.03639
      H1    10.87690   -1.06408    1.55189
       H    11.43916    0.98005   -6.25936
       O    10.51107    1.18184   -5.93429
      H1     9.97481    0.87312   -6.68698
       H     8.88470   -4.96335   -1.95465
       O     8.99069   -4.31240   -2.66786
      H1     9.77494   -3.74177   -2.47041
       H     7.94698    3.93988    0.57079
       O     8.29525    3.98676   -0.39253
      H1     7.47589    3.77222   -0.88705
       H     8.00581    4.76169   -8.78752
       O     7.86241    5.71414   -8.97944
      H1     8.73381    5.89251   -9.37756
       H    10.50217    6.72810    1.69391
       O    10.21590    6.96999    2.59364
      H1     9.80546    7.86194    2.47066
       H     5.57618    2.32190   -5.98087
       O     5.85842    3.18797   -6.30359
      H1     5.07615    3.76788   -6.32280
       H     2.47867    2.39869   -0.07006
       O     2.03563    2.00432    0.65871
      H1     1.30003    1.47390    0.31326
       H    10.76704   -1.59121   -2.58772
       O    10.90841   -2.38376   -2.08034
      H1    11.48370   -2.84654   -2.68397
       H     6.18530   -1.74135    0.51439
       O     6.09219   -2.69231    0.47764
      H1     6.29117   -2.74750   -0.46691
       H     7.17170   -2.59503   -4.88363
       O     6.97608   -2.56896   -3.88062
      H1     7.78030   -2.91051   -3.55330
       H    12.57819   -2.06222   -4.02870
       O    12.26331   -2.86768   -4.41867
      H1    11.57082   -2.59212   -5.04901
       H    10.82114    3.59245    1.47503
       O    11.60046    3.42511    0.91869
      H1    12.31996    3.68874    1.48527
       H    11.36723   -2.94700   -7.29316
       O    10.52027   -2.80369   -6.78820
      H1    10.20355   -1.87788   -6.99704
       H     9.11770    9.32171   -3.83331
       O     8.66357    8.69284   -3.19482
      H1     8.94523    7.86191   -3.59680
       H    13.39496   -0.10454   -5.17719
       O    13.19492   -0.26664   -4.22337
      H1    12.41940    0.29886   -4.11729
       H     2.10079   -1.24188   -4.52511
       O     2.47573   -0.37954   -4.79608
      H1     3.12308   -0.67274   -5.46428
       H     4.33883    8.95436   -1.06629
       O     3.58886    8.30886   -1.02751
      H1     4.01960    7.47800   -1.35133
       H     2.74926   -0.44209    2.21481
       O     3.57715    0.01713    1.94622
      H1     3.14437    0.80483    1.62619
       H     8.78945    3.38279    3.29186
       O     9.28726    2.92749    2.56444
      H1     8.64586    2.29589    2.33081
       H     1.22916    1.17161   -4.11730
       O     0.47424    1.42570   -3.54401
      H1     0.35244    2.32880   -3.79343
       H     3.67874    3.92213   -1.69654
       O     3.49054    2.97340   -1.35735
      H1     4.44517    2.76227   -1.12614
       H     3.13059   -0.45341    0.31018
       O     2.69149   -0.88824   -0.42091
      H1     3.13708   -0.65488   -1.16786
       H     7.82415   -0.71611    4.02471
       O     8.48937    0.00105    4.09563
      H1     8.82998    0.04394    3.19984
       H    10.37928    1.00988   -3.02288
       O    10.29787    0.22626   -3.54235
      H1    10.26408    0.69100   -4.43757
       H     6.48234    0.66392    1.36855
       O     6.59900    0.21103    0.52924
      H1     7.54019    0.15535    0.48417
       H     7.00245    2.68072   -8.02661
       O     7.19239    3.01089   -8.88271
      H1     6.28790    3.09741   -9.27184
       H     9.10560   -0.27193   -8.55681
       O     8.80761   -0.56422   -7.68617
      H1     7.87009   -0.51024   -7.73641
       H     0.50478    0.97658   -1.89537
       O     0.47293    0.68929   -0.91695
      H1     1.28094    0.13045   -1.04226
       H    12.89566   -0.07415    1.57989
       O    12.83924   -0.03156    2.51130
      H1    13.63714   -0.53008    2.64732

