180
frame 11 | Written by MDAnalysis XYZWriter (release 2.4.3)
       H    14.40871  -17.99846  -19.30339
       O    14.48018  -18.78798  -18.77402
      H1    14.98741  -19.40039  -19.40285
       H    11.92046  -11.57471  -13.63452
       O    12.26413  -10.83253  -14.15625
      H1    12.86085  -10.47856  -13.41473
       H     5.67761  -17.30847  -10.35148
       O     5.78410  -17.32889  -11.29955
      H1     6.71581  -17.17167  -11.40777
       H    12.71412  -15.03009  -10.66113
       O    11.96974  -15.27875  -11.18419
      H1    12.35055  -15.88237  -11.82554
       H    12.47192  -15.16091   -7.63091
       O    13.04690  -14.56198   -8.15569
      H1    13.89928  -14.45802   -7.65237
       H    11.55734  -14.36093  -20.16517
       O    10.81829  -13.90245  -19.77151
      H1    11.31803  -13.36185  -19.07192
       H     3.35788  -18.19672   -7.44184
       O     3.97855  -17.58753   -7.92239
      H1     4.23736  -18.24413   -8.65170
       H    17.74186  -16.56260   -9.64208
       O    17.14276  -16.16771   -8.99297
      H1    17.03479  -16.95683   -8.39191
       H     4.90830  -16.51256  -14.31041
       O     4.29949  -15.78158  -14.13138
      H1     4.57735  -15.52428  -13.25314
       H    11.40101  -17.00976   -7.50109
       O    10.84531  -16.20700   -7.39810
      H1    10.38652  -16.32692   -6.54546
       H    13.25138  -19.20780  -17.33772
       O    13.02331  -19.36611  -16.41886
      H1    13.87174  -19.04812  -16.05655
       H    13.14785  -13.73355  -14.60162
       O    13.06184  -14.19360  -15.41433
      H1    13.85347  -14.74655  -15.62074
       H     7.41554  -15.37051   -6.91900
       O     6.85797  -16.12033   -6.84609
      H1     7.29531  -16.71248   -6.26100
       H     6.73539  -18.04765  -13.91927
       O     6.26806  -18.16938  -14.76364
      H1     7.01280  -18.36531  -15.33997
       H    10.85436  -11.10123  -10.45770
       O    11.48283  -11.73343  -10.73856
      H1    11.03604  -12.26041  -11.43333
       H    18.34868  -19.69602  -13.95037
       O    18.17373  -19.66366  -13.00327
      H1    17.26900  -19.30399  -12.90002
       H    18.76526  -14.41955  -15.64725
       O    18.12060  -13.70897  -15.84243
      H1    18.04907  -13.62148  -16.81961
       H    10.02472  -16.23602   -8.89977
       O     9.49783  -16.10035   -9.72732
      H1    10.24158  -15.93715  -10.37498
       H     8.93940  -17.68071  -12.27995
       O     8.16749  -17.27504  -12.71955
      H1     8.54612  -16.46691  -13.13674
       H    10.89053  -19.96638  -19.60726
       O    11.70219  -19.88575  -19.08033
      H1    11.80724  -18.91039  -18.90483
       H     7.43804  -12.28265  -12.95799
       O     7.26720  -12.93728  -13.64433
      H1     6.67297  -13.50642  -13.21641
       H    14.15932  -12.86172  -18.93707
       O    14.60097  -12.20942  -19.46092
      H1    15.11433  -11.82725  -18.75045
       H    16.02583  -18.07597  -15.30233
       O    15.50625  -18.87914  -14.92651
      H1    15.46391  -18.60608  -14.01444
       H    15.48818  -16.28337  -17.13602
       O    15.01243  -16.07480  -16.31705
      H1    15.65811  -16.19049  -15.68206
       H     9.26774  -13.39469   -7.31107
       O     8.38255  -13.73716   -6.96155
      H1     8.41337  -13.41122   -6.03290
       H     9.04844  -18.01940   -9.38621
       O     8.57658  -18.79737   -9.02701
      H1     8.37869  -18.38809   -8.17788
       H     9.46607  -18.06374  -15.59765
       O     8.67659  -18.37491  -16.07431
      H1     8.65157  -17.72107  -16.81293
       H    19.00366  -19.51643  -18.58749
       O    17.96976  -19.48956  -18.66149
      H1    17.89572  -18.90885  -19.47483
       H     4.24826  -15.02977  -17.97653
       O     4.02136  -14.12104  -18.13828
      H1     4.40347  -13.69023  -17.30329
       H     2.26258  -17.03996  -15.67502
       O     2.62636  -17.82384  -16.19607
      H1     3.35874  -17.41451  -16.67412
       H    16.48509  -17.49606   -6.73426
       O    16.78597  -18.13001   -7.43384
      H1    16.01409  -18.68415   -7.54414
       H    15.24955  -14.89797  -12.70746
       O    15.74142  -15.72915  -12.89999
      H1    16.60331  -15.33873  -12.76218
       H     1.42500  -15.04417  -14.29746
       O     1.62917  -16.01419  -14.23066
      H1     2.56818  -15.89851  -14.19207
       H     8.46144  -14.20881  -13.62500
       O     9.17820  -14.82569  -13.33959
      H1     9.16594  -14.58159  -12.41686
       H     3.67317  -17.81100  -12.41442
       O     3.41430  -18.67383  -12.76657
      H1     3.73062  -18.63038  -13.63949
       H     5.90173  -12.43755  -15.35230
       O     5.37547  -12.99006  -16.04425
      H1     4.50931  -12.56231  -15.88061
       H    15.95048  -14.81615  -17.97307
       O    16.67098  -14.83862  -18.56125
      H1    16.29903  -14.67171  -19.42645
       H    15.63604  -12.03897  -15.55308
       O    15.66298  -12.64839  -14.82941
      H1    16.48540  -13.14195  -15.01056
       H    15.20569  -13.87556   -9.99218
       O    14.95881  -13.47839  -10.84301
      H1    14.23248  -12.92856  -10.60879
       H     6.26193  -14.87946  -15.83812
       O     6.75224  -15.69580  -16.03708
      H1     7.16546  -15.96894  -15.19374
       H    18.18013  -17.03274  -16.30547
       O    17.44161  -17.62163  -16.51373
      H1    17.76420  -18.11750  -17.26491
       H    11.66431  -19.63960  -14.57809
       O    10.98068  -19.08404  -14.21147
      H1    11.57828  -18.43179  -13.83215
       H     5.49048  -15.48352  -11.59872
       O     5.52910  -14.61933  -11.92117
      H1     5.07079  -14.17500  -11.15246
       H     5.68955  -13.53958  -18.93522
       O     6.20501  -13.11621  -19.59929
      H1     7.09358  -13.53497  -19.62428
       H    11.06384  -12.81979   -9.23201
       O    10.70852  -12.98936   -8.39718
      H1    11.44020  -13.34480   -7.89690
       H    12.15051  -19.12254   -6.99749
       O    12.65424  -18.43411   -7.39460
      H1    12.68202  -18.75869   -8.31615
       H     6.84342  -11.62296  -10.34006
       O     7.56866  -11.62973  -10.99965
      H1     7.83517  -12.54469  -10.82632
       H     7.18290  -17.39797  -18.38585
       O     7.90388  -16.74727  -18.24103
      H1     7.63499  -16.25750  -17.43003
       H    11.22431  -16.42167  -17.80964
       O    11.85342  -16.54267  -18.54016
      H1    11.25313  -16.67709  -19.27509
       H    15.20365  -18.58349  -11.47084
       O    15.84599  -18.38120  -12.16227
      H1    15.69786  -17.44062  -12.31181
       H    11.64915  -15.70543  -15.75378
       O    11.15622  -16.45501  -16.07134
      H1    11.86111  -17.01451  -16.28228
       H     6.48856  -19.31685  -19.98049
       O     6.32693  -18.91554  -19.09520
      H1     6.12868  -19.64961  -18.50754
       H    10.50190  -13.81783  -13.29114
       O    11.24415  -13.31388  -13.03168
      H1    11.75820  -13.97666  -12.53832
       H    13.95816  -15.63913   -9.24359
       O    14.49806  -16.21300   -9.82544
      H1    15.34955  -16.24057   -9.34587
       H    18.62363  -14.66861  -11.93164
       O    18.17385  -14.18588  -12.60063
      H1    18.38000  -13.23166  -12.44839
       H     3.45772  -15.88365   -9.97949
       O     3.07291  -16.19907  -10.84692
      H1     2.43528  -16.83238  -10.53658
       H    13.13086  -14.06897  -17.07759
       O    13.29338  -14.16079  -18.03055
      H1    12.80431  -14.97920  -18.16060
       H     8.41669  -14.71662  -10.07626
       O     8.09468  -14.12711  -10.81233
      H1     7.17539  -14.33975  -10.93481
       H    13.57921  -17.29457  -12.29522
       O    12.73791  -17.69267  -12.47031
      H1    12.67243  -18.19909  -11.61929
       H     5.41808  -16.82941  -17.04298
       O     4.86648  -16.73858  -17.77608
      H1     5.16946  -17.52007  -18.19728

