180
frame 5 | Written by MDAnalysis XYZWriter (release 2.4.3)
       H   -19.11617  -10.67844   16.34272
       O   -18.40845  -10.56449   17.09481
      H1   -17.58537  -10.96510   16.79698
       H    -9.18925  -10.73010   11.67803
       O    -9.75138  -10.35674   10.95278
      H1   -10.10559   -9.65697   11.49325
       H   -14.41800  -10.17610   10.24172
       O   -13.65814   -9.95199    9.70718
      H1   -14.05145   -9.23558    9.22436
       H    -8.27668  -10.96917   15.05832
       O    -7.58847  -10.55110   15.64542
      H1    -6.87836  -10.53188   14.98330
       H   -11.35248  -15.97734   18.13757
       O   -11.35730  -16.00954   19.12105
      H1   -12.28866  -15.72458   19.34674
       H   -18.52909   -7.65878   18.17246
       O   -19.10242   -8.05128   17.52963
      H1   -18.70140   -8.96608   17.38577
       H   -12.69984  -10.89200   13.51330
       O   -13.28952  -10.23539   13.92808
      H1   -13.96863  -10.89607   14.35702
       H   -13.35985   -4.34232   15.43288
       O   -13.16614   -3.96767   16.29776
      H1   -13.81780   -4.38330   16.85942
       H   -12.68499  -13.22538   17.29104
       O   -12.05518  -13.67011   16.78161
      H1   -11.27792  -13.12535   16.93948
       H    -7.94244   -9.27892   14.30739
       O    -8.26373   -8.59991   13.67803
      H1    -9.18865   -8.77901   13.74954
       H   -12.62435  -19.05640   18.71232
       O   -13.07651  -18.24481   19.02470
      H1   -12.35307  -17.58696   19.24593
       H   -15.15701  -14.87757   16.25541
       O   -15.83131  -14.30319   15.93748
      H1   -15.38337  -13.86198   15.18642
       H    -7.90541   -7.38015   15.31481
       O    -8.00704   -6.43428   15.43924
      H1    -8.65138   -6.28131   14.80351
       H   -12.44851  -11.33657    9.76354
       O   -12.16911  -12.21295   10.13639
      H1   -13.02917  -12.60592   10.32187
       H    -9.59279   -6.54101   16.40110
       O   -10.46714   -6.32811   16.77689
      H1   -10.83328   -7.17410   17.11714
       H   -19.95658   -5.46326   11.56043
       O   -19.64289   -4.55572   11.83240
      H1   -18.81264   -4.84346   12.22091
       H   -11.44202   -5.49873   11.23620
       O   -11.49377   -6.45222   11.17452
      H1   -11.46484   -6.63833   10.22276
       H   -14.39784  -18.23800   12.69488
       O   -14.73592  -18.68613   13.47826
      H1   -14.96687  -17.87199   13.92343
       H   -15.30530  -15.07499    8.77594
       O   -14.41394  -15.45792    8.69776
      H1   -14.77883  -16.35607    8.59624
       H   -19.86792  -10.32779   11.76366
       O   -19.49705  -11.03389   11.26735
      H1   -18.80025  -11.19550   11.92982
       H   -18.57697  -13.99934   15.74271
       O   -18.92491  -13.86739   14.83792
      H1   -18.61732  -14.70204   14.42558
       H   -15.65217  -12.50771   10.87430
       O   -15.53210  -11.56910   11.13676
      H1   -16.27196  -11.44717   11.76191
       H   -16.47021   -3.92549   16.31094
       O   -17.07161   -3.51704   15.71024
      H1   -16.45096   -2.92762   15.16380
       H   -15.37884   -4.78509   18.73943
       O   -14.84342   -4.98935   17.94525
      H1   -14.77292   -5.95554   17.88260
       H   -18.03104   -9.89250   10.33653
       O   -17.47730  -10.09436    9.60525
      H1   -16.96699  -10.84806    9.86825
       H   -11.29244  -16.84658   10.71161
       O   -11.58072  -17.48590   11.37000
      H1   -11.99172  -16.88970   12.05608
       H   -18.42733   -7.54142   12.47360
       O   -17.66897   -6.95418   12.44310
      H1   -17.12125   -7.45038   11.79879
       H   -14.29049   -8.40539   16.19029
       O   -14.15078   -9.23098   16.71906
      H1   -13.27338   -9.50068   16.24748
       H   -14.15434   -7.47226   19.57057
       O   -13.54560   -7.55150   18.75644
      H1   -13.99829   -8.20000   18.26674
       H    -8.46101  -15.37083   14.52285
       O    -8.94254  -14.87305   13.90911
      H1    -8.94919  -15.42461   13.11011
       H   -11.85841   -7.74973   14.58948
       O   -12.47984   -7.23269   15.09704
      H1   -11.79064   -6.76686   15.58421
       H   -15.01070  -17.11138   11.39781
       O   -14.64858  -16.49914   12.03614
      H1   -15.22684  -15.75473   11.94513
       H   -17.20628  -14.39983   10.43717
       O   -16.73639  -13.82920    9.76244
      H1   -17.38000  -13.77524    9.09140
       H   -11.82622  -13.20479   13.04523
       O   -12.06645  -12.31781   12.87090
      H1   -12.10299  -12.23057   11.89589
       H   -13.46527  -14.71710   11.57418
       O   -13.95601  -14.02273   11.09034
      H1   -14.08366  -14.48720   10.21884
       H   -12.41868  -15.00786   14.44604
       O   -11.98860  -14.93738   13.52678
      H1   -11.05707  -15.09063   13.70455
       H   -15.07114   -2.98712   12.76571
       O   -14.70408   -2.94641   11.89571
      H1   -13.90773   -3.48176   12.01138
       H   -16.76292  -15.70742   15.19052
       O   -17.21828  -16.31742   14.61172
      H1   -17.76285  -16.85049   15.16200
       H    -9.91238  -11.34198   17.68627
       O    -9.74721  -12.24642   17.38255
      H1    -9.19637  -12.55335   18.10678
       H    -8.23647  -13.52971   19.70161
       O    -7.93419  -12.69638   19.28332
      H1    -7.09474  -12.98481   18.85196
       H   -13.17125   -5.53378   14.04702
       O   -14.01054   -5.07466   13.84073
      H1   -14.62810   -5.70042   14.32225
       H   -11.83453   -8.07172   12.60551
       O   -11.35595   -8.86472   12.91010
      H1   -12.10568   -9.38808   13.22469
       H   -19.45888  -15.09991   18.14027
       O   -18.82952  -14.38428   17.85053
      H1   -19.30511  -13.53041   17.83417
       H   -13.99255  -17.22134   17.87966
       O   -14.69898  -16.90468   17.23105
      H1   -14.67224  -17.75827   16.76376
       H   -15.58096  -12.12051   16.43334
       O   -15.95228  -11.33792   15.93731
      H1   -15.39062  -10.53414   16.13592
       H    -8.95024   -8.64824   19.80587
       O    -9.01068   -9.54135   19.54216
      H1    -8.04224   -9.61204   19.22803
       H    -9.43534  -15.05383   17.10133
       O    -8.80919  -15.79789   17.21815
      H1    -8.98643  -16.24582   16.39296
       H   -15.43297  -12.93922   13.15904
       O   -14.67897  -13.08560   13.81177
      H1   -13.89963  -13.15298   13.19320
       H   -10.11688  -11.74874   13.32505
       O    -9.22108  -11.78651   13.60769
      H1    -8.90300  -12.65295   13.39401
       H   -17.61790  -16.13758   12.86887
       O   -17.63675  -15.66211   11.99004
      H1   -18.52775  -15.87557   11.55745
       H   -10.09473  -12.87725   10.30604
       O    -9.55677  -13.53103   10.79059
      H1    -8.66199  -13.22520   10.50951
       H   -17.37932  -11.45178   13.94633
       O   -17.42023  -10.93233   13.11383
      H1   -17.02044  -10.08448   13.38013
       H   -14.03258  -11.62433   19.05761
       O   -14.34101  -12.49812   18.69058
      H1   -15.32870  -12.27318   18.77361
       H   -14.93946   -4.65633   10.86987
       O   -14.65005   -5.42380   10.36799
      H1   -13.94511   -5.76762   10.82978
       H   -10.81853   -9.38454   18.63972
       O   -11.54864   -9.10342   18.03850
      H1   -12.20453   -8.76323   18.65953
       H   -16.33767   -6.44718   15.35283
       O   -15.84405   -6.81689   14.59630
      H1   -16.54212   -6.89682   13.86396
       H    -9.20843   -5.25369   12.94560
       O    -9.87833   -5.70223   13.44033
      H1   -10.38145   -6.10781   12.72626
       H   -10.61419   -4.13010   19.10867
       O    -9.99668   -4.89562   19.20690
      H1   -10.12479   -5.48962   18.43083
       H   -15.63547  -18.44569   20.10400
       O   -16.18602  -18.22252   19.32111
      H1   -15.55388  -17.66703   18.84113
       H   -15.63171   -7.08272   10.18249
       O   -16.09112   -7.82309   10.56824
      H1   -16.44978   -8.32025    9.82154

