180
frame 4 | Written by MDAnalysis XYZWriter (release 2.4.3)
       H     8.99794   -1.58653   -0.58750
       O     8.47513   -2.25656   -1.01400
      H1     9.11552   -2.99176   -1.17162
       H     5.45933   -1.72345    3.01804
       O     5.40856   -0.91055    2.55936
      H1     6.24373   -0.41774    2.68334
       H     0.84445   -7.34310    1.87570
       O     1.11366   -7.68130    0.96733
      H1     1.98524   -7.23681    0.81566
       H     4.01303   -4.66350   -5.68998
       O     4.22203   -3.80122   -6.04765
      H1     3.53985   -3.46191   -6.65976
       H     4.10031   -0.97059   -3.03933
       O     4.16820   -1.69525   -3.64423
      H1     5.07195   -2.07819   -3.39615
       H     0.53002    3.95091    3.88330
       O     0.22475    4.85520    4.08836
      H1     0.62730    5.37765    3.41614
       H     7.42810    3.66068    4.27942
       O     8.06470    2.91364    4.34147
      H1     7.73352    2.45596    5.12770
       H    -0.70122   -2.59293   -4.45533
       O    -1.01926   -1.76577   -4.09312
      H1    -0.34382   -1.35321   -3.51358
       H     0.41201   -6.82144   -3.69175
       O     0.84926   -5.95455   -3.95038
      H1     1.81980   -6.15956   -3.88721
       H     6.09718   -7.04857    4.19119
       O     6.41913   -6.14689    4.32201
      H1     5.60684   -5.53450    4.21555
       H     6.00207   -2.36757    0.94615
       O     6.12432   -3.03543    0.27053
      H1     6.88827   -2.72044   -0.18997
       H     3.19178    4.46489    0.77218
       O     3.67608    3.87054    0.17752
      H1     2.95979    3.46133   -0.29957
       H     1.97904   -5.66325    3.73452
       O     2.24606   -6.52658    4.13055
      H1     1.45091   -6.79472    4.68278
       H    -1.82345   -4.87081    0.48664
       O    -2.14173   -4.94761   -0.42014
      H1    -1.42642   -4.79410   -1.00990
       H     0.55751    2.86068    0.59642
       O     0.74481    2.76328   -0.38467
      H1     0.53212    1.79497   -0.46306
       H     3.71875   -2.46765    6.71391
       O     4.18779   -3.33175    6.93701
      H1     3.51788   -4.03297    7.04634
       H     6.76197   -5.41303    2.56188
       O     7.43467   -5.09358    1.89448
      H1     6.94078   -4.47387    1.32332
       H     4.10585    0.14189    3.88876
       O     3.32381    0.37852    4.40173
      H1     3.45439    1.35344    4.60686
       H    -0.97944   -2.44830    4.34036
       O    -0.07606   -2.46046    4.49771
      H1     0.02874   -2.57531    5.45709
       H     1.35283   -1.45006   -1.53101
       O     1.57471   -2.27161   -1.95637
      H1     1.99692   -2.11637   -2.75903
       H     5.92640    5.27207    3.88853
       O     5.64459    4.62396    4.55676
      H1     5.73723    4.99335    5.47074
       H     0.20410   -3.40537   -2.31442
       O    -0.36152   -4.20808   -2.42698
      H1     0.12418   -4.76178   -3.06037
       H     4.50614   -3.47649    5.03128
       O     4.94903   -3.39605    4.17255
      H1     4.28930   -3.64499    3.50910
       H    10.24092   -1.85151    3.44638
       O     9.85948   -1.95453    4.31586
      H1     8.89538   -1.76536    4.24082
       H     2.05870   -3.91887    2.19391
       O     1.87416   -4.01242    3.09962
      H1     1.15298   -3.43466    3.31630
       H     5.28843    2.20873   -0.13737
       O     6.10522    2.39572   -0.64493
      H1     5.93910    3.02426   -1.37897
       H     4.49166    3.34357   -4.32963
       O     3.61156    3.23878   -4.69063
      H1     3.05973    3.30797   -3.94753
       H     2.27165   -2.63894   -5.58854
       O     1.51590   -2.15502   -5.32609
      H1     0.86408   -2.23449   -6.03939
       H     4.76429    0.86002   -2.89618
       O     3.91862    0.75719   -2.41610
      H1     4.20931    0.48862   -1.54025
       H     1.80448    4.75289   -2.62288
       O     2.11440    3.87666   -2.32981
      H1     1.55282    3.41669   -1.68646
       H    -0.95978   -0.43731   -1.09691
       O    -0.20389    0.14768   -1.32951
      H1    -0.39311    0.76823   -2.07914
       H     1.71686    0.29510    3.94707
       O     0.78868    0.01316    3.78755
      H1     0.71438   -0.91891    4.16291
       H     7.28618    0.34551    6.38017
       O     7.39524    1.27846    6.57581
      H1     8.20844    1.39845    7.08062
       H     8.58219    0.07879    1.91050
       O     8.02873    0.27117    2.70249
      H1     8.46817    0.99501    3.10262
       H    10.23051    0.81889   -2.16732
       O     9.51675    1.51418   -2.13103
      H1     8.74365    1.09730   -2.50673
       H    12.05289    1.43583    1.27193
       O    11.30876    1.50144    1.87697
      H1    10.68114    2.12925    1.47914
       H     2.80248    0.73774   -4.31440
       O     1.96179    0.38051   -4.69680
      H1     2.08252   -0.57712   -4.81393
       H     0.03004    2.86358   -3.25288
       O     0.01802    1.90149   -3.36855
      H1     0.86357    1.58092   -3.65217
       H     7.12232    1.80563   -3.70497
       O     6.92850    1.09749   -3.08742
      H1     6.67401    1.54852   -2.28677
       H     2.14134    1.03635   -6.43489
       O     2.18595    1.46086   -7.29265
      H1     1.27010    1.63239   -7.46273
       H     4.60588   -3.78876   -2.85322
       O     5.35006   -4.12949   -2.38880
      H1     5.27502   -3.61872   -1.57675
       H     2.97770   -0.29980    6.09567
       O     2.80212   -0.93421    6.85046
      H1     3.26256   -0.40598    7.58323
       H     7.79482   -2.36779    6.01891
       O     7.23825   -1.78670    5.44019
      H1     6.57442   -2.34877    5.03456
       H     4.59914   -6.71244    0.04350
       O     3.87076   -6.53247    0.69767
      H1     3.75867   -5.58396    0.67075
       H     5.22839   -1.24266   -5.71205
       O     5.70618   -0.73804   -6.38102
      H1     6.34472   -0.15059   -5.90237
       H     4.50343    4.47995   -1.85842
       O     5.28421    4.26168   -2.35659
      H1     5.78991    5.02720   -2.47135
       H     2.21606   -3.15569    0.26178
       O     2.97161   -3.60956    0.61111
      H1     3.71603   -3.02709    0.50416
       H    -2.16663   -2.26519    0.89499
       O    -1.57760   -2.24420    0.09405
      H1    -2.13087   -2.78845   -0.45417
       H    -2.65603    1.44685    0.31062
       O    -2.39259    2.07600    0.99619
      H1    -3.16142    2.13355    1.60090
       H    -0.93385    1.47567    6.29505
       O    -1.07959    0.73169    5.72097
      H1    -0.33924    0.78608    5.11026
       H    -0.70584    2.19936    2.05777
       O     0.13016    2.29444    2.52451
      H1     0.20756    1.40750    2.90730
       H     7.83190   -0.75289   -3.41004
       O     8.41080   -1.47654   -3.77512
      H1     8.57407   -2.11125   -3.06575
       H     7.67724    2.17836   -6.20416
       O     7.28247    2.77330   -5.47516
      H1     7.92507    3.54622   -5.55173
       H     3.43515    2.87487    5.89894
       O     3.39735    2.92110    4.92839
      H1     4.08245    3.54726    4.72700
       H     4.60335   -0.41676    0.90202
       O     4.13632   -0.48022    0.03571
      H1     3.22023   -0.45352    0.39781
       H     5.79222   -5.71444   -1.48037
       O     6.07774   -6.55045   -1.18384
      H1     6.97915   -6.48518   -0.86779
       H     6.99476   -4.90578   -5.28354
       O     7.43311   -5.44851   -4.62420
      H1     7.24201   -5.10319   -3.74187
       H     0.87580   -0.65624    1.91921
       O     1.21244   -1.21925    1.21114
      H1     0.48307   -1.44938    0.64602
       H     6.85789    4.60824    0.76348
       O     7.60411    5.17777    1.11161
      H1     8.27759    4.48205    1.05516
       H     9.24057    0.95558   -0.29439
       O     9.37766    0.29150    0.38187
      H1    10.08592    0.60294    0.92542

