180
frame 1 | Written by MDAnalysis XYZWriter (release 2.4.3)
       H    -2.34833   -4.60142   -0.36260
       O    -2.13285   -5.43169    0.09870
      H1    -3.00022   -5.63879    0.55192
       H    -0.63380   -0.26769   -0.68254
       O    -1.33471   -0.56532   -0.11754
      H1    -1.84192    0.29255    0.20006
       H     0.57957  -12.82248   -3.96325
       O     1.41334  -13.20566   -3.66926
      H1     1.23424  -14.14661   -3.69990
       H    -6.52870   -9.23927   -5.47094
       O    -6.90753   -9.47909   -4.62409
      H1    -7.29691   -8.63779   -4.35914
       H    -3.09534   -7.37286   -3.47267
       O    -3.16809   -6.52611   -3.93589
      H1    -3.76692   -6.01340   -3.44927
       H    -0.58545   -2.44982   -6.23669
       O     0.01919   -3.12940   -5.98301
      H1    -0.04105   -3.63547   -6.79909
       H    -4.17111    0.30283   -5.21882
       O    -3.44457   -0.26484   -4.92664
      H1    -2.67859    0.40389   -4.84227
       H     1.31626   -5.23587   -1.29846
       O     1.05458   -5.46200   -2.25182
      H1     0.20444   -5.92197   -2.04843
       H    -6.23242   -6.14925   -2.99033
       O    -5.84177   -6.35965   -2.13304
      H1    -5.35117   -5.55622   -1.84719
       H    -1.58460  -10.19556   -8.63449
       O    -1.51735  -10.41166   -9.59102
      H1    -1.79072  -11.32752   -9.48658
       H    -3.70932   -0.01722   -3.10966
       O    -3.88006    0.50732   -2.27988
      H1    -3.05725    0.39202   -1.82623
       H    -0.32157   -7.09785    3.83472
       O    -0.77264   -6.26221    3.95483
      H1    -0.18819   -5.80444    4.66636
       H    -1.61474   -9.85120    3.79683
       O    -1.38361   -9.33197    3.04649
      H1    -2.14824   -8.76739    2.93106
       H     1.91987   -5.16386   -4.84360
       O     2.58982   -4.47087   -4.71528
      H1     2.88010   -4.56828   -3.77616
       H     4.66493   -3.82002   -1.95547
       O     3.83923   -4.27748   -1.75581
      H1     4.11114   -5.21791   -1.65032
       H     3.45362   -8.00666   -6.71158
       O     3.20204   -7.94961   -7.63293
      H1     3.82772   -8.64005   -7.93930
       H    -3.28013   -3.35214    2.12753
       O    -3.89177   -3.43321    1.34106
      H1    -4.56865   -2.83530    1.61571
       H     4.42971   -8.32945   -0.30085
       O     3.95288   -8.99239    0.22031
      H1     3.09857   -8.52849    0.47438
       H     4.38790   -4.58436   -5.56253
       O     5.09283   -3.99206   -5.67148
      H1     5.62166   -4.31598   -6.40776
       H    -7.73549   -7.43351   -1.19239
       O    -8.38991   -7.33310   -0.48935
      H1    -8.16880   -6.48851   -0.09143
       H     5.27513   -7.64336   -6.00814
       O     4.47778   -7.56900   -5.33351
      H1     4.58372   -8.42166   -4.83330
       H     1.95646   -2.81429   -6.52574
       O     2.58650   -2.13404   -6.72372
      H1     3.32719   -2.49054   -6.22561
       H    -0.58264  -13.23452   -5.47535
       O    -0.78367  -12.63299   -4.75475
      H1    -1.05663  -11.79077   -5.17197
       H    -4.25980   -4.93289    1.68043
       O    -4.56028   -5.87946    1.55218
      H1    -4.62041   -6.21915    2.48117
       H    -1.92530   -6.36447   -2.89774
       O    -1.24250   -6.56678   -2.26218
      H1    -1.68362   -6.36798   -1.47762
       H    -6.34782   -2.38922    0.33266
       O    -6.44347   -1.86847    1.11670
      H1    -6.03878   -1.00843    0.88427
       H     1.46552   -8.04449   -3.57504
       O     1.70679   -7.45130   -4.29783
      H1     1.94645   -8.06674   -5.00640
       H     0.24928   -6.37935   -4.87441
       O    -0.32390   -5.89632   -5.49741
      H1    -0.32973   -5.04210   -5.10416
       H    -3.41966   -2.38419   -5.16635
       O    -3.57021   -3.33211   -5.10534
      H1    -4.22158   -3.48498   -5.87215
       H    -1.59492  -13.19873   -0.43504
       O    -0.89851  -12.80667   -0.95883
      H1    -0.09229  -13.29375   -0.77626
       H    -0.52975   -9.51451   -7.12609
       O    -1.48096   -9.63810   -6.96522
      H1    -1.82392   -8.72162   -6.90105
       H    -2.64422   -0.82086   -6.49047
       O    -1.80730   -1.14304   -6.80496
      H1    -1.44370   -0.43191   -7.29938
       H    -4.57664   -7.86538   -5.68649
       O    -4.78746   -8.65760   -6.19428
      H1    -3.92776   -8.89468   -6.62405
       H    -0.30479   -1.61194    0.96202
       O     0.35033   -2.29537    1.29528
      H1     0.39535   -2.12165    2.25827
       H     1.61894   -8.43076   -8.07643
       O     0.73806   -8.84184   -8.18807
      H1     0.67165   -9.21055   -9.03742
       H    -6.26428   -5.35740    0.66089
       O    -7.14489   -4.98592    0.61810
      H1    -7.63113   -5.26587    1.44746
       H    -1.37611   -3.87602    2.32040
       O    -1.83178   -3.74015    3.18717
      H1    -1.78211   -4.63328    3.60113
       H    -5.72412   -6.10851   -8.65322
       O    -5.01625   -6.47927   -9.21021
      H1    -4.73802   -7.10464   -8.51256
       H    -5.24340   -1.16738   -1.83058
       O    -6.02852   -1.72180   -2.02596
      H1    -5.61887   -2.61257   -2.12158
       H    -7.75218   -9.02541   -0.03148
       O    -7.59931   -9.86268    0.44683
      H1    -6.77214   -9.52828    0.82856
       H    -2.11003   -3.40279   -7.99233
       O    -2.59049   -4.10300   -8.42339
      H1    -3.16359   -4.47350   -7.73086
       H    -2.11280   -6.59382   -7.53401
       O    -2.61241   -7.01954   -6.80832
      H1    -2.03465   -6.66097   -6.06784
       H    -3.76938   -3.85968   -1.99722
       O    -4.46346   -4.11996   -2.59179
      H1    -4.02223   -3.80984   -3.41271
       H    -0.31123   -5.18510   -8.69625
       O     0.42468   -4.85237   -8.13672
      H1     0.47401   -5.46928   -7.39777
       H     2.64855   -3.76786   -0.17442
       O     2.13729   -4.31904    0.45736
      H1     1.39583   -3.67163    0.66307
       H    -5.03566  -11.77159   -4.92217
       O    -4.18015  -11.29473   -5.01135
      H1    -4.41970  -10.39077   -5.31293
       H    -1.10251  -10.85434    0.22556
       O    -0.44956  -10.40729    0.77747
      H1    -0.93211   -9.95887    1.51063
       H    -1.96638   -6.76959  -10.07960
       O    -1.23567   -6.64067   -9.46710
      H1    -0.62471   -7.37775   -9.70110
       H     1.32100   -1.60336   -3.60541
       O     1.65203   -0.97659   -4.30127
      H1     1.82838   -1.50378   -5.13533
       H     0.29113   -3.95115   -3.06363
       O    -0.24107   -3.17349   -3.27283
      H1    -0.06092   -3.07110   -4.20280
       H     2.80036   -6.91189   -2.30641
       O     3.50066   -7.00212   -1.70327
      H1     4.25337   -6.95551   -2.31356
       H    -5.03706   -9.22276   -3.16804
       O    -4.10859   -9.33546   -2.91828
      H1    -3.77393  -10.06012   -3.45166
       H    -0.19156    0.21440   -4.59754
       O    -0.97492    0.58613   -4.08506
      H1    -0.82389    1.53547   -4.09425
       H    -8.37896   -3.30125   -4.88705
       O    -8.08212   -4.14815   -5.29060
      H1    -8.79508   -4.38719   -5.87721
       H    -8.25410   -6.51513   -3.81910
       O    -7.39859   -6.50733   -4.30662
      H1    -7.35932   -5.61754   -4.71149
       H    -4.67269   -7.76537    0.09425
       O    -4.67799   -8.68735    0.19412
      H1    -4.78711   -9.04437   -0.68384
       H     1.18543   -7.66075   -0.15606
       O     1.71570   -7.36363    0.64362
      H1     2.10300   -6.58361    0.22476
       H    -4.95063   -2.42599   -8.10110
       O    -5.34908   -2.23012   -7.23612
      H1    -6.05468   -2.91231   -7.22963
       H     0.05954   -9.22138   -0.86265
       O     0.37689   -8.62946   -1.53364
      H1    -0.43824   -8.28633   -1.90674
       H    -1.44437   -2.91543   -1.98132
       O    -2.23040   -2.94505   -1.42187
      H1    -2.07783   -2.15350   -0.90981

