180
frame 3 | Written by MDAnalysis XYZWriter (release 2.4.3)
       H     3.12600  -16.88493   15.64512
       O     2.54322  -17.66235   15.54801
      H1     2.38144  -17.57209   14.56403
       H    -8.37850  -11.53136    8.14068
       O    -8.07607  -12.16004    8.85047
      H1    -8.57092  -11.85577    9.61503
       H    -1.75248  -14.91874    2.09620
       O    -2.11355  -14.04275    1.84054
      H1    -2.54863  -13.79968    2.68879
       H     2.16259  -14.07882    7.34891
       O     1.21004  -14.02975    7.30778
      H1     1.03151  -14.26128    6.36506
       H    -3.64814  -11.54565    7.48475
       O    -3.52601  -11.06311    6.59872
      H1    -2.84187  -10.37999    6.79356
       H    -1.40730  -15.46491    8.22223
       O    -1.01586  -15.80475    7.41158
      H1    -0.19487  -15.27379    7.51393
       H    -4.84893  -16.05308    9.47252
       O    -5.68460  -16.12145    9.92370
      H1    -6.26526  -16.16193    9.11944
       H     0.79339  -18.92664   10.04917
       O     0.58408  -18.48089   10.89248
      H1    -0.17194  -19.01624   11.18879
       H    -6.83201  -13.34021   10.81673
       O    -6.87472  -14.15660   11.37638
      H1    -6.36878  -14.81685   10.79471
       H     0.04953  -17.48021    7.00193
       O     0.56856  -18.21970    6.63329
      H1     0.20063  -18.55475    5.88301
       H     3.12444  -17.03213   12.68857
       O     2.72692  -17.91924   12.81622
      H1     2.23165  -18.03955   11.97712
       H    -5.83967  -14.35945   12.65073
       O    -5.41934  -14.74533   13.48559
      H1    -6.02783  -15.44530   13.67482
       H    -1.49509  -12.32394    3.83187
       O    -1.01030  -11.60931    3.31802
      H1    -1.20823  -10.84882    3.93028
       H    -9.60087  -19.69184   12.61654
       O    -9.42522  -18.72550   12.77677
      H1   -10.14327  -18.25334   12.22668
       H    -4.46415  -13.11727   16.13530
       O    -3.85429  -13.23056   15.37866
      H1    -4.56056  -13.31918   14.67710
       H    -2.84721  -17.35802   10.71324
       O    -2.85702  -16.90213    9.84884
      H1    -2.68928  -17.58981    9.19934
       H    -5.50985  -15.39214    1.95387
       O    -6.18395  -15.16817    2.63308
      H1    -5.78040  -15.49097    3.48184
       H    -2.63867  -18.26669    7.15968
       O    -2.78156  -18.66211    8.02927
      H1    -3.71881  -18.83528    8.04272
       H     3.94559  -19.26242   12.20334
       O     4.79070  -19.48627   11.68683
      H1     4.37170  -19.82295   10.84956
       H    -2.32177  -11.23557   12.24998
       O    -2.65747  -11.34857   11.36469
      H1    -3.09366  -10.49257   11.28899
       H     4.49675  -17.43891    7.54190
       O     3.96843  -16.95577    8.20734
      H1     4.56242  -17.12207    8.98152
       H     3.46597  -17.89750    4.70806
       O     3.44136  -16.92647    4.56018
      H1     3.90460  -16.49660    5.29069
       H    -2.74693  -18.54827    1.32393
       O    -3.25718  -18.32295    2.15708
      H1    -2.52771  -18.31605    2.78328
       H    -1.06766  -10.56670    8.12634
       O    -1.36950   -9.74935    7.76714
      H1    -0.55995   -9.24538    7.75631
       H    -3.56571  -13.34683    9.07532
       O    -4.31365  -12.80518    8.76494
      H1    -4.79014  -13.34646    8.12502
       H    -1.59106  -14.05529   10.42759
       O    -1.85182  -13.29613    9.87503
      H1    -2.20476  -12.67513   10.52851
       H   -10.43192  -15.48476    9.72358
       O   -10.72512  -16.30468    9.25451
      H1   -11.34138  -15.87054    8.63378
       H    -1.11923  -16.49519   10.04508
       O    -0.32998  -15.97062   10.19204
      H1     0.31806  -16.59456   10.61146
       H    -5.36291  -18.66433    6.38090
       O    -5.32801  -18.77109    7.30671
      H1    -6.29141  -18.86404    7.53526
       H    -7.25143  -13.47364    7.66740
       O    -6.62273  -14.17733    7.38824
      H1    -7.24350  -14.92125    7.27279
       H    -4.20579  -16.45233   16.47280
       O    -3.46796  -15.90275   16.20571
      H1    -3.96128  -15.17198   15.83796
       H    -0.85427  -14.38535    4.51155
       O    -0.38225  -13.68291    4.93047
      H1    -0.01417  -13.27001    4.10353
       H    -8.92463  -16.05503   13.45651
       O    -9.48260  -15.24057   13.66810
      H1    -9.52332  -14.78641   12.81837
       H    -5.35710  -16.25139    5.80197
       O    -5.36286  -16.59031    4.93953
      H1    -6.24840  -16.94351    4.84445
       H     0.68983  -14.47806   15.69461
       O     0.42127  -13.85991   14.98139
      H1     0.15889  -14.42094   14.21290
       H    -7.82535  -17.93963    8.44070
       O    -7.76379  -18.93175    8.33741
      H1    -7.19248  -19.14163    9.10699
       H     2.26484  -12.66401   12.38627
       O     1.60041  -12.01419   12.32456
      H1     1.00565  -12.52184   11.68751
       H    -0.60472  -18.70533   17.30906
       O    -1.48038  -18.30655   16.99719
      H1    -2.03587  -18.27336   17.84968
       H    -3.70872  -15.24842   13.61378
       O    -2.81156  -15.56128   13.65024
      H1    -2.86013  -15.71564   14.57501
       H    -9.07610  -16.18613    8.26751
       O    -8.28589  -16.37586    7.68303
      H1    -8.76504  -16.82261    6.96722
       H    -2.62174  -15.02801    6.37197
       O    -3.58023  -14.76499    6.60143
      H1    -3.66314  -13.91942    6.12821
       H    -2.28172  -12.22163   14.99077
       O    -1.54960  -11.83521   14.43960
      H1    -0.76323  -12.32827   14.55374
       H    -6.14941  -19.32594   15.56989
       O    -5.76915  -19.63693   14.73230
      H1    -4.88084  -19.27816   14.85804
       H     3.04538  -18.50815    8.61210
       O     2.34876  -19.13313    8.79232
      H1     1.74896  -18.80210    8.10077
       H     3.90109  -15.57714    7.35978
       O     3.98997  -14.81389    6.75274
      H1     4.98406  -14.85474    6.63239
       H    -0.44513  -12.42342    9.23777
       O     0.20271  -11.85882    8.75180
      H1     0.42174  -12.42324    7.99630
       H    -2.70471  -18.86526    5.46609
       O    -2.71101  -17.88481    5.45725
      H1    -3.67127  -17.63190    5.20116
       H    -6.84919  -17.69807   13.19700
       O    -6.88760  -17.21605   14.02443
      H1    -6.48033  -17.94171   14.58462
       H    -2.58250  -18.82114   15.58953
       O    -3.11811  -19.35214   14.97243
      H1    -2.96419  -18.89976   14.10774
       H    -3.47482  -12.01627    4.71801
       O    -3.56942  -12.85965    4.21473
      H1    -4.09872  -12.57348    3.47544
       H    -5.67355  -19.19953   10.82377
       O    -5.90866  -18.42342   11.40727
      H1    -5.72770  -17.69245   10.84824
       H     2.30450  -18.01963    2.28907
       O     1.80074  -17.15515    2.43452
      H1     2.26720  -16.76417    3.21596
       H     4.78470  -15.60857   12.97274
       O     3.84621  -15.40768   12.98177
      H1     3.61699  -14.99326   12.14140
       H    -9.21869  -18.91292    5.14381
       O    -9.66832  -18.21860    5.60447
      H1   -10.41605  -18.60176    6.15063
       H    -3.50024  -16.93416   12.82891
       O    -3.46401  -17.89961   12.49952
      H1    -4.44003  -18.04895   12.21398
       H    -1.62046  -16.55376    4.21980
       O    -1.87032  -15.62425    3.94992
      H1    -2.68770  -15.53151    4.47874
       H    -0.03758  -19.78700    3.41655
       O    -0.36106  -18.86588    3.42026
      H1     0.45478  -18.40004    3.07140
       H    -1.44466  -14.85115   12.92853
       O    -0.51237  -14.59283   12.58729
      H1    -0.42097  -15.22442   11.85270
       H    -5.12704  -12.02408   10.23250
       O    -5.81938  -11.60934   10.71644
      H1    -5.56076  -11.46076   11.66044
       H    -5.01576  -18.46005    3.58140
       O    -5.74639  -19.03806    3.89293
      H1    -6.44136  -18.86337    3.21314

