180
frame 10 | Written by MDAnalysis XYZWriter (release 2.4.3)
       H     7.11548    2.00142  -17.84504
       O     7.06666    2.37317  -18.75973
      H1     7.87512    1.98949  -19.17836
       H    12.62970    4.39194  -17.96453
       O    11.96092    4.89015  -17.44499
      H1    11.31291    4.20403  -17.32691
       H     3.95593    2.76502  -11.45325
       O     4.72582    2.63394  -12.07554
      H1     4.92870    3.52361  -12.27776
       H     3.17597   -0.22475  -11.66618
       O     3.15419   -0.56665  -12.55447
      H1     4.10036   -0.42584  -12.76665
       H     8.80281   -4.06592  -11.93987
       O     8.37992   -3.22099  -11.79028
      H1     9.07717   -2.61117  -12.16719
       H    11.90215   -4.04842  -16.65926
       O    12.36867   -3.82153  -15.78810
      H1    12.65484   -4.68306  -15.40195
       H     9.45295   -3.04197  -10.35236
       O     9.67601   -3.01783   -9.40345
      H1     8.84035   -3.07514   -8.95089
       H     2.68057   -3.14845  -10.44124
       O     2.35526   -3.21169   -9.54356
      H1     2.85990   -2.46451   -9.17924
       H     5.49069   -0.74507  -14.34698
       O     5.56259   -0.63344  -13.37802
      H1     5.95794    0.24905  -13.20550
       H     8.23201    0.25711  -12.41574
       O     8.46243    0.57713  -13.26801
      H1     8.83884    1.45991  -13.17680
       H     0.60562   -2.33914  -12.19374
       O     0.32211   -2.08132  -11.20416
      H1     1.14845   -2.24999  -10.74645
       H    12.35541   -4.22136  -12.65951
       O    12.70049   -3.31276  -12.57882
      H1    12.32257   -3.03221  -13.44588
       H     1.38962    0.84417  -10.84109
       O     1.93632    1.60590  -10.93959
      H1     1.56344    1.97264  -11.71975
       H     8.38444    6.68849  -17.89748
       O     8.03728    7.48857  -17.50477
      H1     8.79747    8.04605  -17.44685
       H    11.21545   -1.20664  -15.73090
       O    10.53892   -1.28894  -16.44176
      H1     9.76955   -1.35657  -15.80392
       H     0.31526    2.76061  -18.37030
       O     0.37120    3.43940  -17.66572
      H1    -0.54665    3.38944  -17.37775
       H     6.14735   -0.05735  -16.36996
       O     5.20218   -0.22481  -16.13704
      H1     5.02429    0.60472  -15.64453
       H     9.48080    2.63196  -11.05955
       O    10.04951    2.67728  -11.80608
      H1    10.69605    3.37679  -11.58978
       H     3.66916   -6.33404  -14.52373
       O     4.53181   -6.66052  -14.28201
      H1     5.04226   -6.31139  -15.06787
       H    11.18899    2.49806  -16.41456
       O    10.41200    2.69855  -17.01877
      H1     9.85483    3.21759  -16.43502
       H    12.37702    5.39553  -15.54719
       O    12.24095    5.29149  -14.58108
      H1    11.40595    4.84167  -14.48621
       H     1.91169    1.53909  -14.95783
       O     1.46444    0.66206  -14.73279
      H1     2.03867    0.33091  -13.97200
       H     1.04441   -3.36773  -17.50309
       O     1.84702   -2.76992  -17.59349
      H1     1.81685   -2.43533  -18.48629
       H     3.74299   -2.51319  -12.64696
       O     3.72908   -3.21431  -12.01027
      H1     3.92984   -3.92466  -12.64988
       H     3.93548    5.47270  -16.28520
       O     3.17646    5.76113  -15.77847
      H1     3.50270    6.31785  -15.07208
       H     8.23480   -7.05334  -14.53588
       O     8.03986   -6.08426  -14.59727
      H1     7.50595   -5.94710  -13.79417
       H     3.83394    4.75707  -19.28738
       O     3.55830    4.03405  -18.67445
      H1     2.58261    4.04837  -18.82915
       H     6.46521    5.28887  -15.86477
       O     5.88868    5.76713  -16.48935
      H1     6.26660    6.65038  -16.49159
       H     1.37624    7.45843  -18.30454
       O     1.44854    6.57584  -17.87985
      H1     2.31676    6.49216  -17.52545
       H     7.94443    4.13479  -14.44035
       O     7.41024    3.47677  -14.98720
      H1     6.50296    3.57680  -14.60584
       H     6.67986   -3.02161  -11.23861
       O     5.99883   -2.75914  -10.58751
      H1     5.21538   -2.79473  -11.11726
       H     1.68655    2.92961  -16.39116
       O     2.30260    3.07463  -15.65977
      H1     2.45522    4.02171  -15.76673
       H    11.29494   -2.40813  -17.90320
       O    11.32139   -3.25877  -18.30433
      H1    10.38917   -3.25016  -18.65070
       H    10.17421   -0.44999  -12.17494
       O    10.43318   -1.39094  -12.23477
      H1    10.79369   -1.36346  -11.33512
       H    10.64392   -3.82635  -14.97647
       O     9.77908   -3.65790  -14.53836
      H1     9.33598   -4.47003  -14.77174
       H     6.90013    3.90601  -10.32302
       O     6.89400    4.83753  -10.53711
      H1     7.80151    5.07416  -10.73751
       H     4.41987    2.05185  -13.69535
       O     4.57717    1.92559  -14.62616
      H1     3.91594    2.52889  -15.05511
       H     3.33878   -3.80543  -17.45595
       O     4.13144   -4.35366  -17.45538
      H1     4.22020   -4.55914  -18.41121
       H    10.00440   -0.11481  -17.88709
       O     9.67227    0.52148  -18.57070
      H1     9.83019    1.39327  -18.16304
       H     5.16523   -3.21074  -15.79718
       O     5.85179   -3.33430  -15.17374
      H1     6.45903   -2.65260  -15.39139
       H     9.25434    5.49120  -13.96278
       O     9.46139    4.53382  -14.00642
      H1     9.65934    4.28850  -13.06947
       H    13.07918    1.93150  -14.99415
       O    12.55379    1.72152  -15.80706
      H1    12.17106    0.84691  -15.50013
       H     7.60320    1.47766  -15.70529
       O     7.57842    0.76111  -16.38666
      H1     8.55169    0.67115  -16.44129
       H    12.55411   -0.46588  -13.51010
       O    12.23434   -1.05224  -14.23916
      H1    11.47718   -1.53402  -13.81118
       H     7.29647    0.10535  -10.15104
       O     8.08324   -0.37983  -10.46178
      H1     7.62316   -1.25345  -10.54349
       H     5.46829    5.90281  -13.27284
       O     5.77967    5.00225  -13.15206
      H1     6.38351    5.09140  -12.43374
       H     5.40738   -5.72108  -13.10920
       O     6.03928   -5.02381  -12.70178
      H1     6.00106   -4.28764  -13.39751
       H     7.04972   -6.11940  -15.82928
       O     6.38718   -5.96175  -16.53983
      H1     5.99561   -5.06376  -16.41786
       H     5.33760   -1.28341   -9.56834
       O     4.85763   -0.47594   -9.33255
      H1     4.45266   -0.82933   -8.56284
       H     1.19967    3.86951  -14.13732
       O     0.89292    3.85315  -13.20133
      H1     0.10769    3.33955  -13.42271
       H    12.43439    0.56910  -18.91762
       O    12.20649    0.95245  -19.76093
      H1    11.23495    0.79463  -19.71177
       H     6.52516    2.19401   -9.70786
       O     6.93332    2.04474  -10.58127
      H1     6.21518    2.12822  -11.20574
       H     6.82622    4.98244  -18.11486
       O     7.28511    5.03822  -18.94416
      H1     7.27791    4.06280  -19.20347
       H     3.08874   -1.48386  -14.86012
       O     2.86928   -2.37914  -15.08530
      H1     2.32072   -2.32881  -15.89052
       H     7.98355   -0.14417  -19.19225
       O     7.45560   -0.80171  -19.70420
      H1     6.74624   -0.99946  -19.06292
       H    -1.78477    2.33056  -14.22257
       O    -1.03445    1.93509  -13.73709
      H1    -0.60878    1.43486  -14.49721
       H     3.57511   -0.31628  -17.67344
       O     3.13667    0.11369  -18.38286
      H1     3.53222    0.93080  -18.60221
       H     8.04013   -1.12291  -14.44479
       O     8.04382   -1.75066  -15.25330
      H1     8.60566   -2.49207  -14.88783
       H     1.26284   -5.17550  -15.45409
       O     1.80009   -5.63018  -14.81968
      H1     1.32489   -5.53432  -13.96307
       H     0.02435   -2.33027  -14.23920
       O     0.43984   -2.99954  -13.67712
      H1     1.34494   -2.97675  -14.02336

