180
frame 5 | Written by MDAnalysis XYZWriter (release 2.4.3)
       H    -3.65755    4.25493    5.30810
       O    -3.19523    4.67495    4.52785
      H1    -3.69338    5.50304    4.43463
       H    -6.45974    2.09008    9.45901
       O    -6.78235    1.73772   10.29660
      H1    -7.70823    1.96627   10.36087
       H   -13.80606    2.41663    1.99184
       O   -14.41270    2.13162    2.69882
      H1   -14.26570    2.85905    3.36191
       H   -14.64571    4.22417   -0.66083
       O   -14.44939    3.69122    0.12463
      H1   -15.25233    3.75497    0.70634
       H   -10.43481   -1.76505    8.16057
       O   -10.38349   -1.94646    7.20165
      H1   -10.09936   -2.92467    7.25740
       H    -6.91939    8.27877    8.03214
       O    -6.63688    9.14880    7.82561
      H1    -7.39822    9.68043    8.14050
       H    -3.82764    5.17081    8.15733
       O    -3.73875    5.15028    7.18085
      H1    -2.91756    4.63642    7.18017
       H   -12.51530    2.57981    5.12004
       O   -12.65613    2.10838    5.95775
      H1   -12.79121    1.18731    5.60652
       H    -9.31888   11.13250    8.71626
       O    -8.91124   10.34178    8.89298
      H1    -9.57016    9.61662    8.94296
       H    -9.93489    4.95207    9.67220
       O    -9.46607    5.87062    9.80532
      H1    -9.00719    5.71575   10.62742
       H   -11.17473    3.10497    9.07242
       O   -11.28841    3.94007    8.61444
      H1   -11.42004    3.66473    7.65956
       H    -9.01608    3.03034    6.59241
       O    -8.51702    2.35503    7.09150
      H1    -9.22075    1.84192    7.48583
       H    -6.32404    2.98373    6.89158
       O    -5.39222    3.01988    7.08581
      H1    -5.13175    3.97151    7.13772
       H   -11.27824    9.26963    7.76781
       O   -11.13548    8.49614    8.35864
      H1   -10.65868    7.84799    7.77858
       H   -11.19859    0.18371    8.21336
       O   -10.90013    1.03725    7.87960
      H1   -11.49779    1.26519    7.08796
       H    -6.76235    4.86804   -0.40552
       O    -5.92365    5.02832   -0.84526
      H1    -5.98644    5.92501   -0.87543
       H   -11.72352   -2.04917    3.61150
       O   -10.96657   -2.46634    4.01572
      H1   -11.14521   -3.40631    3.79174
       H    -7.67664    4.57127    5.24942
       O    -7.13218    4.83638    6.01526
      H1    -6.26524    5.13964    5.67234
       H    -5.37110    7.62017    4.95179
       O    -5.07859    6.74804    4.63573
      H1    -5.72850    6.44995    4.00058
       H    -5.59197    9.40981    1.84193
       O    -6.34807    9.37309    1.20654
      H1    -7.07345    9.07038    1.81432
       H   -10.02510    9.63543    3.21131
       O   -10.24921    9.72785    2.27583
      H1   -10.71578    8.94511    2.04751
       H   -10.92863    7.04307   11.05086
       O   -11.90715    7.29503   11.26549
      H1   -12.29638    6.89784   10.42367
       H   -12.23648    1.42961    0.53681
       O   -12.40920    0.55585    0.93515
      H1   -11.83821   -0.04831    0.42856
       H   -10.84492    6.11821    3.11928
       O   -10.17477    5.46583    3.16784
      H1   -10.51855    4.85905    2.49044
       H    -6.88864    1.43713    4.08864
       O    -7.80801    1.60826    4.03318
      H1    -8.03712    0.67642    4.13075
       H    -9.15634   -0.92409    3.64648
       O    -8.71600   -0.73655    2.81868
      H1    -8.69518   -1.62331    2.44969
       H    -8.50216    8.85920    4.89387
       O    -9.44902    8.91272    4.86691
      H1    -9.60262    9.74886    5.30323
       H    -6.63822    9.37750    6.08900
       O    -6.68858    9.27360    5.08344
      H1    -6.46246   10.14859    4.80241
       H   -12.93136   -1.05498    4.95190
       O   -12.60521   -0.75592    5.84274
      H1   -11.90702   -1.40369    5.85765
       H    -9.10989    2.66275   11.74085
       O    -9.69232    2.23348   11.08953
      H1   -10.58614    2.38057   11.46687
       H   -12.43346    5.42229    8.63390
       O   -13.25255    5.83244    8.48913
      H1   -13.27957    6.04492    7.52498
       H    -8.54640    5.96445    2.26848
       O    -7.61353    6.23169    2.14102
      H1    -6.99056    5.51900    2.25986
       H   -15.18413    2.91910    6.16591
       O   -15.84593    2.22932    6.15318
      H1   -16.51375    2.62668    6.71110
       H    -4.78565   -1.10590    7.32239
       O    -5.61892   -0.65121    7.17583
      H1    -5.39560    0.26158    7.13602
       H    -7.48160    5.85883    7.41344
       O    -7.58465    6.61717    8.03938
      H1    -8.28323    6.39938    8.68542
       H   -10.31998    0.83536    3.07047
       O   -10.70878    1.63746    3.47635
      H1   -10.03664    1.84058    4.17684
       H    -6.31605    2.15973   -1.74253
       O    -7.13409    1.68415   -1.44606
      H1    -6.97671    1.56335   -0.50321
       H   -14.75426    5.35634    1.42451
       O   -14.43926    5.91814    2.14012
      H1   -13.65982    6.41709    1.69169
       H   -10.28468    3.27272    1.07726
       O   -11.11454    3.39533    1.51686
      H1   -11.08476    2.79314    2.32428
       H   -14.60203    8.89529    4.11123
       O   -13.82393    9.39944    4.39214
      H1   -13.06542    8.85835    4.13285
       H    -8.27440    3.17216   -0.91720
       O    -8.58135    3.92403   -0.41108
      H1    -9.00851    4.50251   -1.08235
       H   -15.33530    4.13982    4.09473
       O   -14.48717    4.03285    4.54445
      H1   -13.87111    4.66142    4.09475
       H   -14.17783   -1.55793    3.38728
       O   -13.21014   -1.38449    3.18859
      H1   -13.16975   -0.68832    2.49710
       H   -15.36996    7.03137    3.11225
       O   -15.99876    7.65135    3.56441
      H1   -16.57629    8.04377    2.88138
       H   -10.00019    4.42794    4.75036
       O    -9.99130    4.15025    5.64962
      H1    -9.96275    4.98771    6.13967
       H    -8.20599    7.18459    0.73159
       O    -8.48601    7.53944   -0.13889
      H1    -8.62566    8.45885    0.10299
       H   -11.10173    7.88012    4.23317
       O   -11.86429    7.32737    3.94138
      H1   -12.11284    6.95065    4.78930
       H   -12.30395    7.48499   -0.18823
       O   -12.34315    8.00169    0.61546
      H1   -12.53620    8.87173    0.25960
       H   -13.99786    4.03145    9.11128
       O   -14.60495    3.43128    9.57830
      H1   -14.45592    2.49744    9.17496
       H    -7.12845   -1.57966    4.43179
       O    -6.17454   -1.85516    4.50618
      H1    -5.99951   -1.56376    5.41574
       H   -14.26865    6.80796    6.11486
       O   -13.54402    6.22218    5.88751
      H1   -14.00457    5.38618    5.64822
       H    -9.60390    7.27123    6.01115
       O    -9.86794    6.59604    6.62083
      H1    -8.99887    6.63375    7.15364
       H    -6.24223   -0.03667    1.14250
       O    -6.77858    0.81398    1.18174
      H1    -7.39237    0.65199    1.89913
       H   -11.89382    4.83629    0.02807
       O   -12.01822    5.25280   -0.82635
      H1   -12.13735    4.52812   -1.41186
       H    -9.14979    0.40383    6.08397
       O    -8.95552   -0.42074    5.64322
      H1    -9.36652   -1.06506    6.20095
       H   -11.06247    6.49695   -2.01747
       O   -10.15362    6.79153   -2.32863
      H1    -9.92259    7.24319   -1.46511
       H    -6.38636    3.03723    2.28776
       O    -6.21387    3.93450    2.56601
      H1    -5.29049    4.03677    2.34622
       H   -14.01134    9.17157   10.10236
       O   -14.61814    8.57933    9.58014
      H1   -13.88743    8.05523    9.14662
       H    -4.90099    2.18426    5.05975
       O    -4.99988    1.84636    4.12012
      H1    -4.66630    2.59638    3.59413
       H   -15.16704    0.70805    3.98566
       O   -15.61686   -0.22081    3.91112
      H1   -15.84931   -0.31466    4.82920

