180
frame 7 | Written by MDAnalysis XYZWriter (release 2.4.3)
       H   -14.65709    0.68186   -9.69860
       O   -14.66923    1.59715   -9.60587
      H1   -14.43137    1.95728  -10.47147
       H   -16.23042    6.80804   -3.52589
       O   -16.63347    5.96044   -3.18234
      H1   -15.90144    5.52519   -2.82672
       H   -13.09420    9.66402  -11.40971
       O   -13.03611    9.30866  -10.48649
      H1   -12.08471    9.18146  -10.35989
       H   -12.23182    3.92680  -10.71045
       O   -12.98200    3.53957  -11.19530
      H1   -13.69889    4.17186  -11.04494
       H   -12.52214    4.60065   -8.60698
       O   -13.29526    4.82874   -8.06017
      H1   -13.55926    3.91441   -7.76827
       H   -17.90993    2.73365   -7.77404
       O   -18.43059    2.57874   -8.55449
      H1   -18.53302    1.62962   -8.51028
       H   -13.95698    1.25081   -6.52568
       O   -13.82990    2.08282   -7.04262
      H1   -13.97401    1.72901   -7.97426
       H   -11.92534    9.76750  -13.48094
       O   -12.81171    9.82798  -13.19068
      H1   -13.05340    8.87768  -13.27440
       H   -15.78239    3.22734  -13.60577
       O   -16.06161    2.40114  -13.18177
      H1   -16.83308    2.63944  -12.62617
       H   -16.51003    0.20741  -18.14588
       O   -16.99789    0.91102  -18.59846
      H1   -17.77398    0.47647  -18.88342
       H   -16.56285   -3.23757  -15.31892
       O   -17.24781   -3.18271  -15.95390
      H1   -18.02618   -3.10076  -15.35244
       H   -12.86626   -1.47726  -16.07857
       O   -13.08989   -0.52647  -16.05982
      H1   -13.77218   -0.51331  -15.41221
       H   -19.90321   -1.95022  -14.17319
       O   -19.04867   -2.40119  -13.99333
      H1   -18.55894   -1.67374  -13.61102
       H   -12.75365   -2.96993   -9.33462
       O   -12.42173   -2.32225   -9.93962
      H1   -11.78007   -1.88907   -9.36695
       H   -20.05075   -2.42168  -10.66356
       O   -19.59497   -1.68198  -10.19195
      H1   -18.69565   -1.71307  -10.55031
       H   -15.67176   -3.89909   -8.31207
       O   -16.62851   -3.79953   -8.14994
      H1   -16.66899   -2.93579   -7.66720
       H   -12.77805    6.26869   -5.59192
       O   -12.42707    5.37118   -5.58024
      H1   -12.73916    5.07117   -6.45802
       H   -17.06609    5.87458  -14.74547
       O   -17.81700    5.82024  -15.39340
      H1   -18.44296    5.82692  -14.63362
       H   -14.96424    5.76119  -13.34295
       O   -15.70092    5.35699  -13.81115
      H1   -15.32544    5.01180  -14.65145
       H   -18.85057    3.06532  -12.01367
       O   -18.32683    2.36668  -11.56152
      H1   -18.38905    2.80929  -10.71212
       H   -17.04627   -1.48149  -11.84632
       O   -17.72350   -0.87241  -12.23840
      H1   -17.35456   -0.06729  -11.89183
       H   -14.40358    6.47936   -8.27364
       O   -14.90686    7.19572   -7.68705
      H1   -15.06064    7.91323   -8.32919
       H   -18.34240    6.46611  -18.46311
       O   -17.74637    5.68503  -18.24884
      H1   -17.80842    5.72075  -17.30351
       H   -14.49521   -1.11054   -5.39455
       O   -14.25832   -0.46314   -6.06975
      H1   -13.48061   -0.85419   -6.48337
       H   -17.54159   -3.24804   -5.28702
       O   -18.29297   -3.28801   -4.70497
      H1   -17.94643   -3.28585   -3.80287
       H   -15.06364   10.54661  -14.74854
       O   -15.67789    9.75760  -14.80513
      H1   -15.83044    9.55072  -13.87565
       H   -15.56382   -2.23215  -10.66092
       O   -16.30956   -2.74745  -10.83710
      H1   -16.45061   -3.16733   -9.98459
       H   -17.02156    4.67209   -6.95725
       O   -17.25355    5.62630   -7.07758
      H1   -16.54070    5.98492   -7.62623
       H   -19.28631   -3.61002  -12.48026
       O   -19.23191   -4.25793  -11.71286
      H1   -18.39006   -4.69323  -11.92301
       H   -11.68335    0.28062  -12.47904
       O   -12.47330    0.35477  -11.94187
      H1   -12.27807    1.10664  -11.39810
       H   -16.08002    8.14890   -4.96420
       O   -15.68367    8.30576   -4.13310
      H1   -16.23036    9.02381   -3.87824
       H   -17.25371   -0.98063   -7.11119
       O   -16.58520   -1.50426   -6.74283
      H1   -15.85047   -0.90072   -6.71071
       H   -19.68332    5.97303  -11.03925
       O   -19.11399    6.73283  -11.11848
      H1   -19.58510    7.37744  -10.53362
       H   -14.50241   -0.30063  -11.44809
       O   -14.71061   -0.80400  -10.63770
      H1   -13.87162   -1.27472  -10.43596
       H   -17.54873    1.97956  -15.68330
       O   -17.57076    1.25472  -15.01344
      H1   -17.14183    1.69002  -14.25047
       H   -12.93038    3.70660  -18.16517
       O   -13.03400    4.66125  -18.16315
      H1   -13.83600    4.71737  -17.68463
       H   -14.41413    3.19650  -15.77310
       O   -14.94491    3.95398  -16.07700
      H1   -15.74310    3.49857  -16.34422
       H   -14.85757    7.66008  -12.01152
       O   -13.97981    7.30338  -12.23597
      H1   -13.45935    7.86085  -11.63603
       H   -15.52484    2.63072   -6.79387
       O   -16.45763    2.92716   -6.56103
      H1   -16.34507    2.89386   -5.59231
       H   -10.31597    2.18982   -9.07917
       O    -9.56673    2.26439   -9.69922
      H1    -9.63351    1.42862  -10.21201
       H   -14.42226   -2.85957  -13.69426
       O   -15.20028   -3.41134  -13.91692
      H1   -14.81127   -4.25680  -14.06611
       H   -10.30262    3.96425   -9.58026
       O   -11.12807    4.50997   -9.63693
      H1   -10.73767    5.34335   -9.98222
       H   -17.45646    3.64985  -17.89375
       O   -17.09141    3.09482  -17.19279
      H1   -16.88670    2.22881  -17.66714
       H   -18.54718   12.06393  -14.33211
       O   -17.93294   11.70259  -13.63894
      H1   -17.96115   10.72549  -13.73467
       H   -10.81947    2.62348   -6.55370
       O   -11.13585    1.99286   -7.22212
      H1   -12.05158    2.08868   -7.35805
       H   -17.26831    2.34114   -3.49352
       O   -16.71265    3.02188   -3.92588
      H1   -17.27676    3.77413   -3.87729
       H   -18.03807    0.60424   -4.55379
       O   -18.48269    1.03439   -5.28775
      H1   -18.04163    1.93684   -5.32124
       H   -13.87462   -0.15375  -13.14193
       O   -14.66043   -0.23888  -13.67795
      H1   -15.28475    0.51268  -13.51715
       H   -18.31496   10.78833   -9.67759
       O   -17.72156   11.55212   -9.61612
      H1   -17.67688   11.79272   -8.62252
       H   -11.23573    3.80394  -14.19425
       O   -11.45553    4.59534  -13.66344
      H1   -11.90141    4.12410  -12.89722
       H   -19.57974   -0.41414   -8.32513
       O   -18.86251    0.02474   -7.87376
      H1   -19.30686    0.24997   -7.06117
       H   -17.26590    8.40091  -11.95559
       O   -16.61401    7.73196  -11.70596
      H1   -17.18807    6.92523  -11.57323
       H   -13.79430    4.12958   -2.40748
       O   -14.75544    3.97790   -2.28226
      H1   -15.06585    3.50864   -3.05806
       H   -17.04001    0.49617   -2.50602
       O   -17.86617    1.00294   -2.36597
      H1   -18.63291    0.32368   -2.41623
       H   -13.72488    1.50945  -14.05724
       O   -13.14248    2.01470  -14.63999
      H1   -12.74840    1.29997  -15.12102
       H   -16.57254    8.78445  -10.00376
       O   -16.35233    9.29841   -9.23837
      H1   -16.90445   10.07592   -9.42067
       H   -19.24134    5.52803   -3.53735
       O   -19.02588    5.03118   -4.35684
      H1   -18.09302    5.33259   -4.46432
       H   -15.55160   -6.26106  -11.86736
       O   -14.97328   -5.53149  -11.68098
      H1   -15.52870   -4.75478  -11.72027
       H   -16.48948   -1.49906  -16.21871
       O   -16.23200   -0.57871  -16.45546
      H1   -16.79907    0.00215  -15.88134
       H   -19.48690   -0.33307  -16.64534
       O   -19.81853   -0.08721  -15.76652
      H1   -19.00989    0.07867  -15.21474

