180
frame 6 | Written by MDAnalysis XYZWriter (release 2.4.3)
       H     8.75035  -15.85705    5.21259
       O     9.03164  -15.19115    5.85961
      H1     9.97334  -15.10783    5.55564
       H    11.69486  -16.12794   15.23949
       O    11.10620  -16.82407   15.60926
      H1    10.35306  -16.31221   15.93996
       H     9.02140  -14.86536   15.54463
       O     8.51603  -15.47224   16.11484
      H1     8.28204  -14.91850   16.90207
       H     5.95679  -17.50671    6.50897
       O     6.28105  -17.92335    7.25507
      H1     6.64909  -18.76534    6.86341
       H    10.63891  -17.09492    6.84966
       O     9.71690  -17.27580    7.20217
      H1     9.30424  -16.48054    6.77562
       H     2.48340  -14.21225    7.83346
       O     2.05628  -13.32022    7.68470
      H1     2.21429  -13.33223    6.73632
       H     7.60482  -18.45859   12.81775
       O     7.70461  -17.86043   13.58310
      H1     7.01789  -18.17896   14.15871
       H    15.90080  -18.41563   14.34764
       O    15.30462  -18.14776   15.07033
      H1    14.42417  -18.11742   14.68945
       H     2.88705  -16.81833   12.72342
       O     2.51540  -17.54650   13.26683
      H1     1.92082  -17.90899   12.54004
       H     7.49725  -11.31704    8.22796
       O     6.60896  -11.44970    7.81329
      H1     6.71598  -12.16030    7.11504
       H    16.11499  -13.78728   10.77586
       O    15.75209  -14.44771   11.35450
      H1    15.79089  -15.26368   10.85666
       H    11.60197   -9.76225    9.54241
       O    11.57867   -9.74210    8.55612
      H1    10.76373  -10.21880    8.29393
       H     2.41473  -19.87381    5.64458
       O     3.16950  -19.20802    5.71841
      H1     3.79722  -19.61845    5.10344
       H    15.16402  -16.65079    6.62295
       O    15.42157  -17.46519    6.27247
      H1    14.90804  -18.02886    6.83497
       H    13.76740  -12.07143   12.42455
       O    14.08378  -12.33211   13.32551
      H1    13.46003  -13.10780   13.40947
       H     5.89578  -12.40452   13.76166
       O     5.97501  -11.74764   12.93584
      H1     5.82100  -12.40571   12.24483
       H    10.28574  -16.13161   11.82507
       O    10.77802  -16.05604   12.62967
      H1    11.66408  -16.04704   12.17263
       H    13.41722   -9.94711    7.87441
       O    14.18605  -10.39708    8.20450
      H1    14.88746  -10.08092    7.59278
       H     4.73482  -18.89579    8.34493
       O     4.00122  -18.62285    8.92225
      H1     4.41412  -18.49613    9.77911
       H    11.88530  -14.08432   15.25659
       O    12.78636  -14.38958   15.07117
      H1    13.30016  -13.89713   15.76842
       H     8.84057  -10.64868   11.13659
       O     8.37825   -9.87900   10.84582
      H1     7.59115   -9.70620   11.41141
       H     9.67623  -13.25774   14.02379
       O    10.04341  -14.05733   14.42217
      H1    10.08120  -14.64864   13.64499
       H     4.71566  -18.75060   15.00297
       O     5.54517  -19.14391   15.25653
      H1     5.54391  -18.79989   16.21057
       H     8.14832  -13.70318    5.43082
       O     7.41952  -13.04897    5.59446
      H1     7.61048  -12.35155    4.91530
       H    16.05128  -16.34529    8.67582
       O    16.04248  -16.75854    9.55158
      H1    15.14017  -16.81579    9.77131
       H    12.59824  -13.90322   10.51708
       O    13.01994  -14.78020   10.42549
      H1    13.87961  -14.60255   10.79713
       H    13.68672  -14.24505    5.37051
       O    14.39136  -14.63815    4.83522
      H1    13.94207  -14.56475    3.95617
       H     8.04664  -19.47552   10.49686
       O     7.87581  -18.59584   10.88250
      H1     6.91908  -18.48755   10.85652
       H    16.97901  -19.10247   11.76404
       O    16.81782  -19.38867   10.87234
      H1    16.29551  -18.65454   10.48701
       H    13.35788  -18.85410    4.47661
       O    13.91317  -18.16176    4.12260
      H1    14.34933  -17.74910    4.90946
       H     9.07854  -11.86987    6.76352
       O     9.37742  -11.17475    7.39921
      H1     9.52650  -10.47112    6.72551
       H     5.93501  -13.60879   10.34216
       O     5.29454  -12.99280   10.70331
      H1     4.85868  -12.65088    9.90008
       H     8.63692  -15.35763   10.54016
       O     8.28684  -14.47822   10.80183
      H1     7.98991  -14.62022   11.74592
       H    16.21295  -15.02778   12.88168
       O    16.46351  -15.58647   13.66392
      H1    16.88779  -14.93633   14.23601
       H    13.64528  -14.65242    7.69456
       O    13.99647  -15.47803    7.94334
      H1    13.54673  -15.59572    8.78070
       H    10.43606  -18.59478   15.22659
       O     9.84585  -19.22455   14.78109
      H1     9.25548  -18.62181   14.34805
       H     6.17231  -13.64668    4.58722
       O     5.50690  -13.56271    3.83977
      H1     5.04733  -14.45174    3.94127
       H     8.51121  -11.10587   14.21988
       O     8.60922  -11.76305   13.53906
      H1     7.69047  -11.65233   13.22955
       H    12.97749  -16.63494    7.19841
       O    12.54352  -17.45561    6.97115
      H1    12.55453  -17.93191    7.81452
       H    12.28649  -18.28292   10.10865
       O    11.53183  -18.62085    9.61766
      H1    10.88177  -17.93509    9.80804
       H    11.68345  -15.21327    4.51328
       O    11.54677  -14.40226    5.03480
      H1    11.62301  -13.74301    4.35877
       H     6.57230  -16.44273    3.80052
       O     7.61923  -16.48665    3.84124
      H1     7.80012  -17.09274    3.08659
       H     3.66582  -16.53705    7.74058
       O     3.68857  -15.53820    7.69451
      H1     4.39585  -15.34779    8.31662
       H    11.26589  -16.94227    3.11255
       O    11.64271  -16.84573    3.98793
      H1    12.53846  -17.26671    3.94984
       H    12.04628  -17.73884   16.86489
       O    12.44845  -18.52407   17.34560
      H1    12.99770  -18.08093   18.04971
       H     9.54505  -12.73895   10.23819
       O    10.24248  -12.18553    9.86598
      H1     9.80772  -12.04531    8.98024
       H    13.10740  -12.00580    7.66548
       O    13.20202  -12.83158    7.17590
      H1    12.35591  -13.04537    6.81624
       H    14.01194  -11.34608   10.01954
       O    13.56491  -11.83192   10.71552
      H1    12.69188  -11.44758   10.76198
       H     5.34798  -18.73667   11.99807
       O     5.25811  -18.14778   11.26978
      H1     4.78876  -17.35684   11.63173
       H     8.78791  -17.38701   10.24604
       O     9.61402  -16.85300   10.04434
      H1     9.65703  -16.88333    9.04297
       H     4.93340  -15.41587   12.30703
       O     4.11322  -15.76944   11.87286
      H1     3.63008  -14.90924   11.70300
       H    16.21853  -12.81727    8.47241
       O    16.27802  -12.46574    9.37267
      H1    16.98432  -11.80440    9.20429
       H     4.56851  -12.74566   15.39069
       O     5.48240  -12.98530   15.47676
      H1     5.76099  -12.29195   16.15037
       H     6.15626  -16.59713    8.53539
       O     6.05897  -15.71890    8.94392
      H1     6.96280  -15.37909    8.94651
       H     6.68092  -15.78596   15.73406
       O     5.74659  -15.69308   15.55924
      H1     5.68314  -14.70326   15.55308
       H     9.34892  -17.29144   17.98044
       O     8.81809  -17.69546   18.68126
      H1     7.97880  -17.85888   18.16701
       H    13.66857  -19.21699   10.38625
       O    13.94720  -18.37162   10.83998
      H1    13.57264  -18.41853   11.77802
       H     6.20966  -15.49310   13.96667
       O     6.66813  -15.38520   13.10064
      H1     7.17017  -16.24621   13.07658
       H     5.41506   -8.99435   10.17031
       O     5.02939   -9.28175    9.32728
      H1     5.61243   -9.92780    9.02389
       H    11.81493  -17.84150   13.16708
       O    12.64867  -18.39386   13.19766
      H1    12.13178  -19.22295   13.14326

