180
frame 10 | Written by MDAnalysis XYZWriter (release 2.4.3)
       H   -17.91017   -9.75111   16.82628
       O   -17.50598   -9.59046   15.98256
      H1   -16.61785  -10.11327   15.86018
       H   -16.63935    1.28999   18.93352
       O   -16.08618    0.62667   19.41589
      H1   -16.11577   -0.12555   18.83159
       H   -15.86646  -12.51038    8.80535
       O   -15.36791  -12.18523    9.61287
      H1   -16.02679  -12.25486   10.31852
       H   -12.97544   -2.58445   16.54162
       O   -13.30893   -1.69061   16.52476
      H1   -12.77387   -1.33272   15.77300
       H   -19.31102   -6.26010   16.63310
       O   -18.45008   -5.76427   16.54050
      H1   -18.60106   -5.07657   17.26393
       H   -13.14796  -11.00265   13.36019
       O   -13.49581  -10.71939   12.51430
      H1   -14.18202  -10.00779   12.86346
       H   -11.69197   -5.18115   17.46183
       O   -12.16460   -4.43194   17.87956
      H1   -13.08472   -4.72383   18.06041
       H   -10.29098  -13.56967   18.81734
       O   -10.71140  -12.71383   18.64969
      H1   -10.99272  -12.38767   19.51343
       H   -19.56302  -19.54391   14.75449
       O   -19.08539  -18.70006   14.61165
      H1   -18.19804  -19.01466   14.25754
       H   -16.47714  -15.81175   17.19484
       O   -16.70378  -15.21740   16.45800
      H1   -15.97274  -14.63253   16.32991
       H   -15.71605  -18.43071   15.54905
       O   -15.85939  -18.61983   16.53891
      H1   -14.99563  -18.57494   16.99944
       H   -14.15834  -13.27413   10.66192
       O   -13.64686  -14.06232   10.69385
      H1   -13.78632  -14.36621   11.59765
       H    -8.16578   -7.48140   15.88522
       O    -9.12642   -7.69933   16.00544
      H1    -9.11407   -8.35062   16.77350
       H   -18.98075   -6.58550   11.32657
       O   -18.50937   -5.80911   11.63422
      H1   -18.15422   -6.04271   12.49779
       H   -16.64404  -10.50281    7.69153
       O   -17.43601  -10.62873    7.16977
      H1   -18.09933  -10.18518    7.76776
       H   -14.23314  -18.72834   13.44656
       O   -15.01757  -18.57505   13.87656
      H1   -15.51095  -18.13262   13.16213
       H   -18.31811  -11.34396   10.23631
       O   -18.38152  -10.83517   11.05530
      H1   -18.20977  -11.50924   11.63943
       H   -18.34980  -13.88766   16.48069
       O   -18.93555  -13.53916   15.76959
      H1   -18.87272  -14.21647   15.07514
       H   -15.14447  -11.94083   12.34731
       O   -15.85754  -12.53375   12.25649
      H1   -16.55935  -12.18585   12.85871
       H   -17.16726   -5.07462   15.56405
       O   -16.45124   -4.66900   14.93313
      H1   -16.43046   -3.73619   15.23022
       H   -16.42761   -1.23595   15.62639
       O   -15.79378   -1.83277   15.23771
      H1   -14.96844   -1.62633   15.69045
       H   -14.43098   -9.64597   18.19436
       O   -14.22437  -10.54435   17.97460
      H1   -14.63486  -10.67842   17.09066
       H   -15.30653   -4.91481   19.30552
       O   -14.99179   -4.89018   18.42517
      H1   -15.31264   -5.62820   17.89572
       H   -16.90483   -9.79172   10.64696
       O   -15.95262   -9.53211   10.49726
      H1   -15.61524  -10.38710   10.27532
       H   -17.83378   -8.52096   14.47880
       O   -18.03267   -7.99029   13.68625
      H1   -17.16472   -7.99426   13.31069
       H   -11.71628  -10.27591   15.56638
       O   -12.50901   -9.79677   15.80569
      H1   -12.39956   -9.68056   16.78194
       H   -12.87965   -8.02367   19.18810
       O   -12.46550   -7.62791   18.42233
      H1   -13.16696   -7.29776   17.87952
       H   -10.58542   -7.41377   12.59676
       O   -10.37181   -6.81002   13.35116
      H1    -9.89664   -7.55411   13.83158
       H   -15.13293  -17.08786   11.16840
       O   -15.93295  -17.11904   11.77197
      H1   -16.57486  -16.55503   11.27530
       H   -18.34711  -14.08059    9.78218
       O   -18.48163  -13.22270    9.37909
      H1   -17.76170  -13.21306    8.72124
       H   -11.65343  -12.80129   14.68905
       O   -11.48389  -12.06679   14.11911
      H1   -11.40776  -12.46026   13.26903
       H   -15.42707  -15.34367   12.75959
       O   -14.67646  -14.76182   13.02879
      H1   -15.13105  -13.89998   12.80822
       H   -12.00244  -13.70942   17.38529
       O   -12.19499  -14.10586   16.51586
      H1   -11.33045  -14.56028   16.38294
       H   -14.93600   -5.68436   14.38996
       O   -14.05682   -5.89528   14.04681
      H1   -13.49207   -6.25743   14.72916
       H   -17.57028  -15.90442   14.93379
       O   -18.18072  -15.82552   14.16942
      H1   -18.49165  -16.67591   13.99537
       H    -8.53830  -10.51327   17.67615
       O    -8.72905  -11.37134   17.28070
      H1    -9.25656  -11.75628   17.98410
       H   -11.43338   -6.69891   15.00091
       O   -12.12613   -7.01975   15.56087
      H1   -12.03770   -8.04561   15.47804
       H   -15.52080   -8.35368   20.11763
       O   -15.43750   -8.25143   19.19614
      H1   -16.33492   -8.01704   19.02111
       H   -11.54966   -8.71132   11.04383
       O   -11.30692   -9.33422   11.67357
      H1   -12.11055   -9.81030   11.94692
       H   -15.20263  -16.43689   19.25410
       O   -15.78017  -16.71171   18.54102
      H1   -15.30020  -17.18569   17.87486
       H   -13.89292  -10.81972   15.21040
       O   -14.84928  -11.05802   15.19036
      H1   -14.76932  -11.99815   15.04616
       H   -17.06524   -3.22288   11.45471
       O   -17.57385   -3.37291   10.62648
      H1   -18.11897   -4.16152   10.82532
       H    -9.10365  -14.73655   16.05243
       O    -9.85532  -15.26919   16.26054
      H1    -9.64995  -15.96870   15.64610
       H   -14.85697  -14.24592   14.86596
       O   -14.65419  -13.75231   15.69321
      H1   -13.69044  -14.02027   15.83635
       H    -8.46089  -11.12473   15.65394
       O    -8.61669  -11.23887   14.69197
      H1    -9.48260  -11.67517   14.72378
       H   -18.18312   -6.53085   18.54837
       O   -18.10357   -7.21018   19.23117
      H1   -18.31303   -6.67137   20.00731
       H   -18.78640  -11.35016   18.64892
       O   -18.98450  -10.42695   18.37828
      H1   -18.42806   -9.91231   18.88007
       H   -17.15231   -2.58164   18.54803
       O   -16.42367   -2.00969   18.29246
      H1   -15.86454   -2.67829   17.95592
       H   -18.15913  -15.47309   11.63951
       O   -18.01077  -15.50099   10.73233
      H1   -18.80129  -16.05859   10.43957
       H   -14.68694   -3.31490   12.90971
       O   -15.55280   -2.89103   12.64943
      H1   -15.75398   -2.40182   13.47736
       H   -12.13269  -13.83364   11.32101
       O   -11.21012  -13.70706   11.64777
      H1   -10.81158  -13.11779   11.00127
       H   -18.26234  -12.16733   14.72635
       O   -18.04478  -11.84497   13.85837
      H1   -18.14507  -10.88010   13.94490
       H   -13.22611   -5.08180   11.54087
       O   -13.12598   -5.24624   10.58053
      H1   -12.41698   -4.61838   10.27423
       H    -7.90114   -8.43640   19.04304
       O    -8.63922   -9.00940   18.86261
      H1    -9.07775   -9.22196   19.68077
       H   -14.76026   -5.19242   10.01069
       O   -15.63591   -5.26806    9.55826
      H1   -16.21956   -5.47081   10.32441
       H   -12.72216   -3.12394   13.45691
       O   -13.11524   -3.80068   12.88589
      H1   -13.38530   -4.54394   13.43247
       H   -15.74001   -6.07073   16.01403
       O   -15.32651   -6.88178   16.36594
      H1   -15.90182   -7.62437   16.05038
       H   -19.27938   -3.17397   15.12128
       O   -19.27204   -2.57273   14.34544
      H1   -18.60487   -2.93655   13.79291
       H   -19.55957   -3.58398   18.08733
       O   -18.63985   -3.63271   18.37678
      H1   -18.63008   -3.96006   19.31842
       H   -15.30036   -7.41364   12.70922
       O   -15.48641   -8.36273   12.85921
      H1   -15.75502   -8.71630   11.98981

