180
frame 1 | Written by MDAnalysis XYZWriter (release 2.4.3)
       H    -6.18196  -15.05030   -2.22056
       O    -5.41657  -15.36010   -2.78929
      H1    -4.75012  -14.79249   -2.44222
       H    -4.23573   -7.03637    4.65822
       O    -5.04886   -6.54937    4.33251
      H1    -5.16786   -5.84803    5.03162
       H    -6.52775  -13.01674    8.28301
       O    -5.95719  -13.63173    7.82993
      H1    -5.00463  -13.40758    8.03651
       H    -1.06951  -14.00421    1.37194
       O    -2.06735  -14.04384    1.45644
      H1    -2.20953  -13.41884    2.15807
       H    -9.31404  -11.93948    8.58908
       O    -8.60186  -12.55695    8.33759
      H1    -8.79336  -12.66558    7.36894
       H    -3.24311  -11.78144    6.55058
       O    -3.57135  -11.13512    5.91392
      H1    -2.97255  -10.39892    5.90478
       H    -6.05562  -13.92720    0.35657
       O    -6.18428  -13.05537   -0.09396
      H1    -6.21827  -12.47787    0.63178
       H    -7.60822  -12.49130    2.99214
       O    -8.19710  -13.24202    3.10574
      H1    -7.58217  -13.96487    2.99831
       H    -8.36940   -9.59486    2.19923
       O    -8.94997   -9.70332    3.00575
      H1    -8.84080   -8.80918    3.50150
       H    -5.61447  -15.94143    9.19763
       O    -6.49204  -16.34008    9.38339
      H1    -7.04529  -16.28455    8.58870
       H   -10.16961  -14.65967    0.78805
       O   -10.21790  -13.71330    0.57495
      H1    -9.50018  -13.14217    0.89395
       H    -7.42901  -10.79891    3.25453
       O    -6.57163  -11.21628    3.02927
      H1    -6.41646  -11.55897    3.94415
       H   -10.34255  -16.09130    4.42347
       O    -9.72535  -15.35195    4.27496
      H1   -10.21950  -14.70123    3.77062
       H    -6.47227  -13.05724   10.97168
       O    -6.93064  -13.86246   11.09310
      H1    -6.54417  -14.28511   10.32896
       H   -12.44877  -15.49992    6.15191
       O   -12.47448  -15.40050    7.13125
      H1   -12.17653  -14.47471    7.24936
       H    -8.34466  -10.97142   -2.11887
       O    -8.46868  -11.83429   -1.71189
      H1    -7.68361  -11.90058   -1.18922
       H    -2.61797   -7.72115    5.96663
       O    -2.71630   -7.90130    5.04345
      H1    -2.13911   -7.23860    4.59539
       H     1.52476  -12.21157    1.78072
       O     0.72827  -12.41866    2.30919
      H1     0.03435  -11.88783    1.89319
       H    -1.61474   -9.85120    3.79683
       O    -1.38361   -9.33197    3.04649
      H1    -2.14824   -8.76739    2.93106
       H    -7.88964  -14.29613   -0.71180
       O    -8.01154  -15.09929   -1.26532
      H1    -8.35062  -15.69595   -0.54669
       H    -4.95561  -15.84712    0.95038
       O    -5.82612  -15.44927    1.10693
      H1    -6.19158  -15.87838    1.88473
       H    -6.66017   -8.29060    6.97324
       O    -7.36043   -7.63301    6.75610
      H1    -7.91295   -7.92419    7.47186
       H    -7.73549   -7.43351   -1.19239
       O    -8.38991   -7.33310   -0.48935
      H1    -8.16880   -6.48851   -0.09143
       H    -7.94044   -7.59714    4.87021
       O    -8.76036   -7.39422    4.34271
      H1    -9.31705   -6.95153    4.98224
       H    -4.75326   -9.49305    8.41016
       O    -5.74515   -9.57789    8.29690
      H1    -5.95047  -10.38349    8.78567
       H    -4.25980   -4.93289    1.68043
       O    -4.56028   -5.87946    1.55218
      H1    -4.62041   -6.21915    2.48117
       H    -2.81659  -10.24989    8.00611
       O    -3.06683   -9.92019    8.91842
      H1    -2.35302   -9.28075    9.06752
       H    -0.56317  -11.16305    7.30131
       O    -1.11439  -10.44570    6.95478
      H1    -0.47399   -9.74862    6.94607
       H    -2.47708  -13.06644    8.44483
       O    -3.13006  -13.02958    7.72699
      H1    -3.11450  -13.96075    7.42861
       H    -4.41518  -17.40855    6.92473
       O    -5.10773  -17.99481    6.52911
      H1    -5.92201  -17.40214    6.60490
       H    -8.04095  -15.51175    7.41210
       O    -7.52487  -16.22548    7.02633
      H1    -8.21054  -16.83189    6.60951
       H    -1.59492  -13.19873   -0.43504
       O    -0.89851  -12.80667   -0.95883
      H1    -0.09229  -13.29375   -0.77626
       H    -0.52443  -13.91955    4.82311
       O    -0.02817  -13.09995    4.88263
      H1     0.43215  -12.88422    4.03521
       H   -10.35250  -10.81458    3.69798
       O   -10.68145  -11.45217    4.34698
      H1    -9.95860  -12.12500    4.25492
       H    -6.45531  -15.67981    5.18506
       O    -6.09020  -15.80622    4.27921
      H1    -6.71896  -16.42404    3.92022
       H    -4.49532  -13.34274   -0.44976
       O    -3.83125  -14.04293   -0.80035
      H1    -3.37071  -14.22206    0.04816
       H   -11.63780  -12.78561   -1.12656
       O   -11.55560  -12.21376   -1.88696
      H1   -10.62703  -11.93229   -1.86425
       H    -6.26428   -5.35740    0.66089
       O    -7.14489   -4.98592    0.61810
      H1    -7.63113   -5.26587    1.44746
       H    -6.88586  -18.18055    2.38120
       O    -7.56631  -17.52279    2.52297
      H1    -8.19562  -17.97576    3.11986
       H   -11.46226  -12.10560    5.92558
       O   -11.90714  -12.30303    6.76364
      H1   -12.79573  -12.00067    6.66501
       H    -8.04129  -13.11357    5.51231
       O    -8.87927  -13.41527    5.89124
      H1    -9.07866  -14.19716    5.31008
       H   -11.50519  -10.13476    0.37803
       O   -11.33004   -9.18495    0.31080
      H1   -10.43534   -9.15282    0.68584
       H    -7.75218   -9.02541   -0.03148
       O    -7.59931   -9.86268    0.44683
      H1    -6.77214   -9.52828    0.82856
       H    -9.85098   -9.18322    8.56600
       O    -9.31682   -8.41193    8.62714
      H1    -9.90045   -7.70589    8.29643
       H    -2.74677  -15.98649    7.30262
       O    -3.46237  -15.61415    6.75254
      H1    -3.06402  -15.55546    5.85225
       H    -7.74469   -4.64023    7.81696
       O    -7.25564   -4.98477    7.00112
      H1    -7.44886   -5.97389    7.01879
       H    -1.10251  -10.85434    0.22556
       O    -0.44956  -10.40729    0.77747
      H1    -0.93211   -9.95887    1.51063
       H   -10.33582  -16.67781    1.09328
       O    -9.50199  -16.61527    0.57354
      H1    -8.87781  -17.04397    1.22442
       H     0.26776   -8.90308    3.52940
       O     0.86167   -8.36221    4.10716
      H1     1.61010   -8.10404    3.57163
       H    -5.20728  -11.94324    5.76064
       O    -5.98121  -12.41798    5.41812
      H1    -6.10426  -13.12134    6.12116
       H   -12.47425  -11.43426    3.70180
       O   -13.36615  -11.77285    3.40957
      H1   -13.56506  -10.91310    2.91958
       H    -4.11494  -17.70637    5.14578
       O    -3.86038  -17.48906    4.23957
      H1    -4.44508  -16.75629    4.13098
       H    -3.62337  -12.20179    4.14269
       O    -3.47087  -12.62479    3.29108
      H1    -4.24392  -13.24085    3.32698
       H   -12.05586  -10.45135    7.49025
       O   -12.13150   -9.49216    7.65029
      H1   -12.64081   -9.53194    8.42648
       H    -4.67269   -7.76537    0.09425
       O    -4.67799   -8.68735    0.19412
      H1    -4.78711   -9.04437   -0.68384
       H   -10.07547   -5.24869    2.16596
       O    -9.30790   -4.97227    2.70797
      H1    -9.16039   -5.68202    3.33066
       H    -2.07773  -16.21417    3.87421
       O    -1.75256  -15.37728    4.20149
      H1    -2.14997  -14.75619    3.57649
       H   -12.25880  -14.09013    1.46788
       O   -13.04446  -14.21967    2.00816
      H1   -13.15559  -13.29951    2.40924
       H    -4.97412  -11.43611   10.54277
       O    -5.93701  -11.29733   10.20767
      H1    -6.15947  -10.55120   10.80081
       H    -4.68466  -18.37947    2.99746
       O    -5.21488  -18.96947    2.38503
      H1    -4.83483  -18.76886    1.47093

