180
frame 12 | Written by MDAnalysis XYZWriter (release 2.4.3)
       H    -6.86794   -7.70304   -9.03872
       O    -7.21753   -6.84431   -8.81179
      H1    -6.48503   -6.53998   -8.24874
       H    -5.60521  -10.68083  -18.04122
       O    -6.24259  -10.93182  -18.79346
      H1    -5.61920  -11.05832  -19.49379
       H    -4.17933  -12.86103  -14.20401
       O    -4.50818  -13.34348  -15.00230
      H1    -4.77339  -12.52671  -15.51245
       H    -9.36113   -8.29334  -17.05818
       O   -10.22407   -8.00014  -17.49441
      H1   -10.05157   -7.04329  -17.62335
       H    -6.23279  -13.83591  -14.21322
       O    -7.15756  -13.53097  -14.06512
      H1    -7.40550  -14.20717  -13.39777
       H    -2.63054  -11.13985  -13.97172
       O    -2.96992  -11.72663  -13.28474
      H1    -2.15726  -12.24052  -13.08663
       H   -12.17962  -14.89906  -14.08632
       O   -11.82641  -15.36002  -14.81219
      H1   -12.35957  -16.14816  -14.77120
       H   -13.32217   -7.05205  -12.40017
       O   -12.75082   -7.80273  -12.33093
      H1   -12.35316   -7.74158  -13.22600
       H    -2.15059  -12.44567  -16.17757
       O    -1.80751  -12.23054  -17.06379
      H1    -1.04924  -12.82020  -17.07607
       H    -9.02481  -11.78200  -12.37489
       O    -8.49092  -11.42704  -13.03933
      H1    -7.89404  -12.19406  -13.24514
       H    -6.81501   -9.88554  -13.43871
       O    -6.00716  -10.12274  -13.86527
      H1    -5.32379   -9.94602  -13.20382
       H    -9.05070   -6.96515  -14.21202
       O    -9.46387   -7.13205  -13.32121
      H1   -10.26719   -7.60191  -13.63168
       H   -11.77859   -6.60984  -11.38814
       O   -11.51527   -5.81078  -10.94143
      H1   -12.08892   -5.76721  -10.12953
       H   -10.36347   -9.53696  -18.23421
       O   -10.58733  -10.43655  -18.59696
      H1   -11.54373  -10.30171  -18.60868
       H   -11.15313  -17.78080   -8.85733
       O   -10.42384  -17.13569   -8.90437
      H1   -10.90983  -16.43473   -8.47562
       H    -7.69228   -5.14087  -11.87154
       O    -6.77070   -5.36743  -11.50776
      H1    -6.84432   -6.32557  -11.31964
       H    -6.49157  -17.68540  -15.20490
       O    -5.86910  -17.77699  -14.48223
      H1    -5.12787  -18.13164  -15.01319
       H    -9.30776  -11.69941  -18.07494
       O    -8.67895  -12.04007  -17.40539
      H1    -8.13027  -12.45407  -18.03331
       H    -8.16716  -17.30021  -17.31181
       O    -7.62423  -16.88088  -16.60974
      H1    -7.99699  -16.04041  -16.39413
       H    -8.38927   -8.20135  -12.30926
       O    -7.68601   -8.84255  -11.95818
      H1    -8.25180   -9.55279  -11.74998
       H    -5.06545  -16.19238  -10.04155
       O    -5.91097  -15.68081   -9.99698
      H1    -5.79019  -14.97513   -9.34844
       H    -4.89284  -10.28567  -10.43104
       O    -4.30341  -11.00682  -10.65912
      H1    -3.98329  -10.71859  -11.52493
       H    -3.76233  -16.08442  -12.57440
       O    -2.87491  -16.41126  -12.89914
      H1    -2.86153  -17.35153  -12.56972
       H    -3.16463   -8.36803  -12.27001
       O    -3.97308   -8.76392  -12.64295
      H1    -4.13942   -8.11469  -13.35521
       H    -1.93792  -14.10750  -11.82239
       O    -1.30378  -13.37377  -11.71718
      H1    -0.88841  -13.73329  -10.90962
       H   -11.38824  -11.07277  -11.80047
       O   -12.00857  -10.98341  -12.54415
      H1   -12.40203  -10.14191  -12.28203
       H   -12.74622   -9.06581   -8.49728
       O   -12.48867   -9.82644   -8.97307
      H1   -11.66705   -9.47797   -9.37479
       H   -13.87041   -8.93826  -11.32774
       O   -14.48591   -9.39562  -10.69376
      H1   -13.78507   -9.55397  -10.03084
       H    -8.31501  -14.05807  -15.25489
       O    -8.96119  -14.64026  -15.67523
      H1    -9.49469  -13.90635  -16.02630
       H    -7.43832  -10.97071   -7.98398
       O    -7.92525  -11.41436   -8.72558
      H1    -7.33269  -11.85857   -9.35058
       H    -9.09388  -13.10323   -8.02232
       O    -9.64108  -13.80269   -8.41838
      H1    -9.21015  -14.64970   -8.16671
       H   -12.66891  -13.43031  -18.01748
       O   -13.38752  -13.27160  -18.62195
      H1   -13.73093  -12.43864  -18.25894
       H    -6.79932  -12.95419  -11.40105
       O    -6.45735  -12.82799  -10.48491
      H1    -5.78196  -12.18588  -10.70011
       H   -11.34014  -11.47970  -13.97512
       O   -10.94806  -11.67817  -14.86437
      H1    -9.96188  -11.72345  -14.67234
       H    -5.87817  -15.92810  -11.86193
       O    -5.53166  -15.79716  -12.74439
      H1    -5.78660  -16.64011  -13.16376
       H    -5.88708  -10.42948   -6.54182
       O    -6.79681  -10.13963   -6.62218
      H1    -7.17805  -10.74941   -5.95439
       H    -8.81193  -15.67524  -12.07207
       O    -8.32185  -14.85943  -11.83518
      H1    -7.62042  -15.16029  -11.29296
       H   -12.83113  -13.00778  -12.98129
       O   -12.36889  -13.83831  -12.72413
      H1   -11.70783  -13.46829  -12.09614
       H    -8.35974  -16.93451   -8.87301
       O    -7.48025  -17.12312   -8.44916
      H1    -6.81861  -16.64373   -8.98320
       H    -4.07392  -14.74653  -16.22365
       O    -3.58305  -15.36557  -16.81737
      H1    -3.66950  -16.19195  -16.29104
       H    -9.53554   -8.84622   -9.98670
       O    -9.88167   -9.78929  -10.18808
      H1    -9.48641  -10.38068   -9.53719
       H    -8.17314  -10.58459  -16.82362
       O    -8.24746   -9.64737  -16.58891
      H1    -7.46134   -9.61532  -16.00741
       H   -12.62492   -9.08951  -16.85219
       O   -13.25872   -9.51372  -17.43805
      H1   -13.87377   -9.74821  -16.73585
       H    -3.90532  -10.23374  -15.93472
       O    -4.72540  -10.57393  -16.18709
      H1    -5.30446  -10.47801  -15.39225
       H   -10.00756   -9.40593   -7.41532
       O    -9.76869   -8.54097   -7.82055
      H1    -8.83666   -8.49650   -7.35525
       H    -9.55229  -13.58964  -11.32654
       O   -10.04370  -12.78991  -11.02981
      H1   -10.14090  -12.83547  -10.06785
       H   -13.86297  -16.09438  -10.71002
       O   -13.15493  -16.06756  -11.37924
      H1   -13.08893  -15.11905  -11.51006
       H    -4.62693   -7.97126  -11.00348
       O    -5.05941   -8.13622  -10.14040
      H1    -4.41961   -7.82010   -9.54863
       H   -10.91363  -12.89901  -16.18783
       O   -11.12825  -13.51927  -16.91340
      H1   -11.46261  -14.30887  -16.47094
       H    -9.62487  -17.54803  -12.28493
       O    -9.29485  -17.36633  -11.40572
      H1   -10.04616  -17.62599  -10.84362
       H    -4.79844  -13.51926   -7.92369
       O    -5.78200  -13.76573   -8.04672
      H1    -5.90224  -13.28214   -8.85658
       H    -6.16886  -16.47338  -18.01077
       O    -5.51947  -15.98224  -18.46517
      H1    -4.89019  -15.62748  -17.80968
       H    -2.81213   -9.67175   -9.75076
       O    -2.53847   -9.21122   -8.94759
      H1    -1.98098   -9.89315   -8.54134
       H    -1.27381   -9.69785  -15.53979
       O    -2.11733   -9.66226  -15.01281
      H1    -2.07759   -8.88423  -14.45552
       H    -7.91637  -18.55662  -11.59328
       O    -7.19027  -19.11610  -11.98542
      H1    -6.81930  -18.51649  -12.68914
       H   -11.13922  -15.79663   -6.84196
       O   -11.58909  -15.01960   -7.30935
      H1   -10.80432  -14.62920   -7.72116
       H    -8.90629  -17.20278  -14.58400
       O    -9.72392  -17.28763  -14.13014
      H1   -10.22694  -16.50467  -14.57538
       H    -6.13525   -7.21725  -15.56086
       O    -6.88961   -7.23668  -16.16621
      H1    -6.45879   -7.38082  -16.95229
       H   -10.99187   -9.61125  -15.03941
       O   -11.41188   -8.68410  -14.97109
      H1   -10.90707   -8.30399  -15.69492
       H    -4.60478   -5.76298  -13.98489
       O    -5.10145   -6.54643  -13.76843
      H1    -5.71468   -6.38554  -13.05329

