180
frame 1 | Written by MDAnalysis XYZWriter (release 2.4.3)
       H    -2.08339    0.30751  -13.76316
       O    -1.78295   -0.19542  -12.98367
      H1    -2.58808   -0.06488  -12.40380
       H    -2.26060   -3.40530  -13.67061
       O    -2.57066   -2.58535  -14.13136
      H1    -2.22224   -1.88933  -13.52383
       H    -9.99264   -6.02555  -19.44648
       O   -10.16307   -6.80559  -18.82966
      H1   -10.39094   -7.58442  -19.35988
       H    -3.73235    1.81550  -18.06244
       O    -2.87288    1.90502  -17.60226
      H1    -2.47412    1.12991  -17.92287
       H    -6.55692    2.18083  -17.77719
       O    -7.24455    1.96856  -17.11002
      H1    -7.17386    1.00382  -17.18414
       H    -8.20960    0.77699   -9.31420
       O    -8.40178   -0.13009   -9.65062
      H1    -8.69764   -0.55523   -8.85238
       H    -6.14377   -1.92871  -10.43092
       O    -6.95785   -1.96608  -10.91282
      H1    -7.50701   -1.18939  -10.63753
       H    -4.52760    5.15186  -18.58582
       O    -3.59091    5.02340  -18.93979
      H1    -3.14350    4.56485  -18.27372
       H    -2.59275    3.44743  -12.42915
       O    -3.33351    3.86900  -12.95683
      H1    -4.12378    3.56809  -12.50782
       H   -11.45942   -1.15922  -15.40811
       O   -11.87134   -0.80947  -16.23905
      H1   -12.68044   -0.34136  -16.03924
       H    -4.90631    1.42085  -14.78435
       O    -5.85723    1.35651  -14.74381
      H1    -6.16472    1.50638  -15.63542
       H    -6.34446    6.08447  -16.39616
       O    -6.77628    6.58625  -15.69977
      H1    -6.67643    5.95906  -14.92278
       H    -5.41739   -2.01032  -15.03338
       O    -5.24185   -1.30301  -15.67614
      H1    -5.25981   -0.51158  -15.15426
       H    -4.33446   -1.02243  -17.79945
       O    -4.34797   -0.64886  -18.70925
      H1    -5.08297   -1.20544  -19.03627
       H    -8.67276   -6.00942  -12.06071
       O    -8.96184   -6.51083  -12.86730
      H1    -8.71411   -5.99561  -13.63657
       H   -11.09272   -6.47511  -12.47072
       O   -11.60044   -6.52460  -11.61187
      H1   -12.57099   -6.60972  -11.88471
       H    -9.10253   -4.07664  -10.67417
       O    -8.18058   -4.36082  -10.43652
      H1    -7.67139   -3.49500  -10.51127
       H    -0.33348    0.94077  -12.45750
       O     0.24600    1.70621  -12.16913
      H1    -0.45630    2.32398  -11.74057
       H    -7.03179   -5.77310  -12.94580
       O    -6.30890   -5.19838  -12.58656
      H1    -6.60898   -5.13985  -11.71379
       H   -11.26174   -3.80798  -10.09309
       O   -10.76112   -3.98450  -10.87403
      H1   -11.05811   -4.88821  -11.25165
       H    -3.33179   -5.39995  -11.85344
       O    -3.34936   -6.28778  -11.41362
      H1    -4.09637   -6.29366  -10.73865
       H    -9.78688    0.82081  -10.33553
       O   -10.51973    1.16952  -10.90404
      H1   -11.39618    0.83935  -10.62274
       H    -8.37273   -2.82209  -13.78283
       O    -7.76478   -2.03608  -13.51806
      H1    -7.23994   -2.30330  -12.75678
       H    -0.89666   -2.11700  -16.48620
       O    -1.22195   -3.00110  -16.52647
      H1    -1.67658   -3.09155  -15.65687
       H    -7.27519    4.24608  -13.42194
       O    -6.76439    5.07720  -13.50443
      H1    -7.33850    5.67484  -12.97044
       H    -0.29168    0.35185  -19.56401
       O    -1.11323    0.18207  -19.00156
      H1    -1.35066   -0.74587  -19.19684
       H   -12.30444   -1.82454  -13.77583
       O   -12.43006   -1.02950  -13.20850
      H1   -11.45560   -0.79996  -13.11358
       H   -10.08333   -3.87062  -14.31432
       O    -9.18821   -4.12211  -14.52289
      H1    -9.12969   -3.89454  -15.46427
       H    -3.26850    2.26163  -15.64269
       O    -3.14881    1.70952  -14.83165
      H1    -3.16522    2.46307  -14.24684
       H    -3.07816   -7.20487  -16.19352
       O    -3.96558   -7.41002  -15.81963
      H1    -4.42313   -7.85976  -16.55397
       H    -1.10283   -4.08560  -12.03110
       O    -1.74429   -4.52522  -12.65075
      H1    -1.40883   -5.45132  -12.56347
       H   -13.33018   -1.69899  -11.95883
       O   -13.94933   -2.10324  -11.31299
      H1   -13.37313   -2.48544  -10.65491
       H   -12.82465    3.41015  -16.00056
       O   -13.68085    3.79507  -16.30812
      H1   -14.18638    2.97809  -16.52379
       H    -2.69362   -3.44324  -17.36970
       O    -3.35848   -3.61775  -18.06502
      H1    -3.33930   -2.90392  -18.70234
       H    -4.15000   -1.04081  -12.04564
       O    -3.87600   -0.46075  -11.37048
      H1    -4.42529    0.31083  -11.32279
       H    -8.48784    2.77775  -13.07718
       O    -7.54085    2.66530  -12.77384
      H1    -7.12061    2.19796  -13.55348
       H   -10.41603    0.56053  -16.79272
       O   -10.09399    1.44692  -17.12199
      H1    -9.12334    1.25471  -17.13836
       H    -8.92210   -7.33430  -17.89660
       O    -8.31099   -7.88235  -17.34433
      H1    -8.86232   -8.30515  -16.62082
       H    -8.74573   -1.86942  -16.43508
       O    -9.40934   -2.58378  -16.68563
      H1    -9.74130   -2.23851  -17.55468
       H    -6.98100    5.00362  -18.23636
       O    -6.21333    5.54997  -18.32294
      H1    -6.58359    6.43801  -18.46413
       H    -9.12764   -0.80549  -13.39832
       O    -9.66349   -0.01618  -13.40187
      H1    -9.74872    0.20516  -12.44628
       H    -9.26672    3.41461  -18.20360
       O    -8.92892    4.22345  -18.61191
      H1    -9.56719    4.83205  -18.13970
       H   -11.40498   -3.50908  -12.73840
       O   -11.61392   -3.40324  -13.67285
      H1   -12.07375   -4.19805  -13.99111
       H   -13.31160    0.50074  -13.98548
       O   -13.60732    1.33440  -14.42152
      H1   -14.27342    1.72534  -13.79969
       H    -7.95503    0.09711  -15.22268
       O    -7.79622   -0.51620  -15.97549
      H1    -6.95308   -0.90698  -15.73059
       H    -4.23186   -8.25436  -13.64187
       O    -5.11776   -8.16383  -13.30041
      H1    -4.98366   -7.22725  -13.10512
       H   -10.95009    3.12562  -13.02252
       O   -10.26243    3.46728  -12.49885
      H1   -10.06051    2.70102  -11.88964
       H    -4.33329   -2.83665  -13.80517
       O    -4.99236   -2.64651  -13.12398
      H1    -5.56690   -3.43042  -13.18402
       H     0.06842    2.20366  -15.52450
       O    -0.41777    2.45146  -16.36553
      H1    -1.26938    1.94019  -16.25275
       H    -3.98859   -1.88533  -10.08596
       O    -4.50736   -2.72809   -9.85401
      H1    -3.83234   -3.28574   -9.50078
       H   -12.29235    1.54362  -19.45684
       O   -11.65093    2.23754  -19.13194
      H1   -11.28188    1.76906  -18.32308
       H    -6.52492   -2.72943  -18.13126
       O    -6.62700   -2.23574  -18.96404
      H1    -6.62893   -3.02117  -19.57985
       H   -11.90502    2.18279  -14.80921
       O   -11.27063    2.81945  -15.07005
      H1   -10.75200    2.32985  -15.75084
       H    -4.78773    3.04696  -10.78846
       O    -4.99333    2.26399  -11.34644
      H1    -5.91828    2.39520  -11.41058
       H     0.40365    0.44679  -16.54957
       O     0.22259   -0.50077  -16.72414
      H1    -0.32887   -0.31906  -17.53776
       H   -11.76410   -3.44972  -16.60288
       O   -12.36376   -4.15256  -16.75268
      H1   -13.00125   -3.67651  -17.28613
       H    -3.57037    5.36006  -14.32747
       O    -3.76195    6.24437  -14.75462
      H1    -2.94988    6.37458  -15.31703
       H    -6.20952   -4.95587  -16.34539
       O    -6.06333   -4.35902  -17.13957
      H1    -5.15376   -4.06154  -17.08487
       H    -4.94358    3.39713  -19.02433
       O    -5.17220    2.52679  -18.63746
      H1    -5.35930    2.05366  -19.47414
       H    -7.49154   -6.67815  -15.91765
       O    -7.08279   -6.41554  -15.11517
      H1    -6.65809   -7.27534  -14.78624

