180
frame 6 | Written by MDAnalysis XYZWriter (release 2.4.3)
       H    -5.65487   -7.44439  -11.32134
       O    -6.41345   -6.88369  -11.01469
      H1    -5.95034   -6.31751  -10.38738
       H    -1.42914    0.15712  -13.46931
       O    -2.36614    0.34162  -13.22343
      H1    -2.64733    0.96442  -13.90155
       H    -6.73321    2.41291   -5.30918
       O    -6.98789    3.32355   -5.14034
      H1    -6.67813    3.83822   -5.87513
       H    -1.84384   -2.78558  -13.36590
       O    -2.15889   -2.24264  -14.12788
      H1    -2.32500   -1.36150  -13.72826
       H    -7.21872    1.18057   -8.13892
       O    -7.17977    0.33154   -7.67966
      H1    -8.12809    0.18312   -7.66680
       H    -6.81060   -2.13625  -10.18017
       O    -7.55212   -2.10697   -9.51235
      H1    -7.35881   -1.30006   -9.00949
       H    -4.16632    5.14646  -12.98163
       O    -3.99501    4.74729  -13.92449
      H1    -4.86500    4.96374  -14.28708
       H    -5.43416    1.52584  -14.44425
       O    -6.07183    0.86150  -14.72209
      H1    -6.27090    1.08421  -15.67375
       H    -2.86853    0.59538   -4.15407
       O    -2.58582    0.01778   -3.42731
      H1    -1.76262    0.49329   -3.18445
       H    -5.73755   -1.86588  -13.87265
       O    -6.48255   -1.74958  -14.52215
      H1    -6.24985   -0.80056  -14.65350
       H    -4.64314   -1.37250  -15.85767
       O    -4.33486   -1.51118  -16.72994
      H1    -5.08157   -1.80457  -17.21547
       H   -10.08910   -4.24107  -10.94170
       O    -9.14238   -3.96031  -10.82251
      H1    -9.17270   -3.41611  -10.04658
       H     1.37595   -2.93962  -12.52507
       O     1.02684   -2.71929  -11.69870
      H1     1.27039   -3.55543  -11.26347
       H    -2.99603    4.64329  -10.47409
       O    -3.24907    3.70450  -10.31290
      H1    -2.59726    3.34007   -9.71065
       H     0.55316    2.46793  -12.08147
       O     1.48092    2.66407  -12.35644
      H1     1.43306    3.20520  -13.21084
       H    -1.91896    1.48621  -12.06395
       O    -1.41047    2.16262  -11.56753
      H1    -2.13951    2.77718  -11.48742
       H    -7.33858   -4.27925  -13.35485
       O    -6.54581   -4.57260  -12.90060
      H1    -6.90878   -5.35842  -12.35821
       H    -2.99898   -4.89563  -10.21931
       O    -2.94784   -5.58760   -9.53161
      H1    -3.74165   -5.32904   -9.01600
       H     2.30377   -0.50571   -9.66306
       O     1.53055   -0.46162  -10.21512
      H1     1.46134   -1.26842  -10.65950
       H    -7.31559    0.19460  -10.67749
       O    -8.23048    0.30834  -10.96005
      H1    -8.27164   -0.45999  -11.51391
       H    -8.46669   -2.73169  -12.01830
       O    -8.46485   -1.93582  -12.58793
      H1    -7.73067   -1.98166  -13.17989
       H    -0.67042   -4.36561  -16.45821
       O    -0.90457   -4.36692  -15.50264
      H1    -1.23305   -3.49903  -15.35513
       H    -8.64304    3.43059  -12.91207
       O    -8.24292    4.31925  -12.92775
      H1    -9.09678    4.83332  -13.04008
       H    -1.18108   -1.38428  -17.42937
       O    -1.54036   -0.73018  -16.89725
      H1    -2.48441   -0.86133  -16.87284
       H   -11.74040   -0.04671  -12.59526
       O   -12.45711    0.37075  -12.00442
      H1   -12.14159    1.29720  -11.91648
       H    -9.83257   -4.10822  -14.44273
       O    -8.97257   -4.50783  -14.45435
      H1    -8.68470   -4.39498  -15.38625
       H    -9.32780   -1.16492   -4.02252
       O    -8.61387   -0.96901   -4.68990
      H1    -7.94665   -0.68749   -4.03823
       H    -3.35028    2.22522  -15.46461
       O    -3.69639    2.17218  -14.55496
      H1    -3.51208    3.10866  -14.26658
       H    -2.79200   -1.59666   -3.88804
       O    -3.20543   -2.47528   -4.17394
      H1    -3.81652   -2.20946   -4.83188
       H    -0.72106   -3.59952  -11.66165
       O    -1.43439   -3.97251  -12.15672
      H1    -1.01287   -4.73944  -12.50551
       H    -1.81702   -3.31206   -7.22305
       O    -1.41368   -2.75181   -7.93827
      H1    -1.83400   -1.87404   -7.76742
       H    -2.60382   -4.39822  -15.86005
       O    -3.27961   -4.09427  -16.49237
      H1    -3.49974   -3.16049  -16.23266
       H    -9.04442   -0.15187   -6.35864
       O    -9.73879   -0.11914   -7.05268
      H1   -10.43497    0.46600   -6.69849
       H    -7.81193   -3.67131   -8.60106
       O    -7.95776   -4.36618   -7.93822
      H1    -8.74998   -4.83619   -8.34149
       H   -11.49789   -2.46752   -6.79247
       O   -11.87232   -1.70587   -7.29967
      H1   -11.09926   -1.06863   -7.32062
       H    -2.97223    1.37951   -6.95321
       O    -3.19558    1.69770   -6.04880
      H1    -4.07824    1.31901   -5.95194
       H    -0.56087    1.76659   -8.20525
       O    -0.54926    0.83045   -8.00297
      H1     0.18607    0.53570   -8.58922
       H    -5.25342    5.02591   -8.61138
       O    -5.86674    5.08955   -9.37850
      H1    -5.29151    5.18104  -10.12941
       H    -5.00409   -1.19772  -11.40574
       O    -5.15597   -0.67888  -10.59884
      H1    -5.19467    0.27363  -10.78826
       H    -8.28405    1.44743  -12.67516
       O    -8.32351    1.42184  -13.59861
      H1    -7.39675    1.25376  -13.81918
       H   -10.46795    2.03044   -8.43247
       O    -9.78802    2.40494   -9.04503
      H1    -9.88596    1.75813   -9.76171
       H    -6.33964   -5.14510   -8.54327
       O    -5.44587   -5.46454   -8.78449
      H1    -5.16874   -6.06462   -8.05192
       H    -6.27947    5.64838  -12.18425
       O    -5.43274    5.97023  -11.88657
      H1    -5.48367    6.87322  -12.22274
       H   -10.29780   -1.06857  -13.29129
       O   -10.65284   -0.40717  -13.84289
      H1    -9.92583    0.28734  -13.93644
       H    -2.61865   -4.41166   -5.63045
       O    -2.08039   -4.65046   -6.36884
      H1    -1.31166   -5.05019   -5.92490
       H    -3.23835   -6.22296   -6.44280
       O    -4.16523   -6.49098   -6.43243
      H1    -4.54015   -5.57889   -6.29245
       H    -0.66449    3.98822   -8.19101
       O    -1.43795    3.37262   -8.26478
      H1    -1.88552    3.47162   -7.36900
       H    -6.60472    3.49613   -9.31738
       O    -6.98955    2.61527   -9.30913
      H1    -7.95268    2.78090   -9.39687
       H    -1.33124   -5.71232   -8.82983
       O    -0.41043   -5.83410   -8.56394
      H1    -0.34720   -6.82733   -8.59191
       H    -9.42184   -1.13949  -15.41682
       O    -8.77052   -1.33225  -16.06474
      H1    -8.03162   -1.63048  -15.53860
       H    -3.32183    4.49878   -8.36282
       O    -3.86039    4.76494   -7.55568
      H1    -3.74972    5.68196   -7.67661
       H    -3.95065   -7.20520  -12.34552
       O    -3.85555   -7.64195  -11.47097
      H1    -3.60303   -6.87073  -10.94775
       H    -8.12551   -2.41141   -5.41197
       O    -8.08920   -3.39102   -5.46560
      H1    -8.13981   -3.55069   -6.49162
       H    -2.20605    0.13020   -8.76727
       O    -3.09867   -0.30733   -8.66715
      H1    -3.38010   -0.30175   -9.57499
       H    -3.86035   -2.86024  -13.28870
       O    -4.64442   -2.52746  -12.80150
      H1    -5.18633   -3.36579  -12.59265
       H    -4.20132   -2.11223   -9.03895
       O    -4.00314   -2.94335   -8.65715
      H1    -3.02312   -2.96661   -8.68284
       H    -4.66401    2.90696  -11.33641
       O    -5.16842    2.19491  -11.69104
      H1    -6.03206    2.26554  -11.32762
       H    -6.04125    0.59784   -6.11919
       O    -5.65630    0.97116   -5.32744
      H1    -5.99669    0.37636   -4.58121
       H    -5.00500   -3.07552   -6.94973
       O    -5.09944   -3.59068   -6.07797
      H1    -6.03652   -3.86538   -6.10316
       H    -4.93772   -5.12920  -15.96821
       O    -5.70829   -5.58547  -15.69493
      H1    -5.79561   -5.29870  -14.78661

