180
frame 5 | Written by MDAnalysis XYZWriter (release 2.4.3)
       H    -3.65755    4.25493    5.30810
       O    -3.19523    4.67495    4.52785
      H1    -3.69338    5.50304    4.43463
       H    -3.30092   -3.83665    0.18041
       O    -3.32064   -4.73462    0.46931
      H1    -3.82973   -4.75584    1.27425
       H    -0.92003   -0.22170   -0.25621
       O    -1.46742   -0.82353    0.31937
      H1    -2.22508   -0.94827   -0.33789
       H   -11.12713   -2.42675    0.10213
       O   -10.84457   -1.57433   -0.26297
      H1   -10.02145   -1.33521    0.16462
       H   -12.46253    2.01296   -2.57353
       O   -12.30737    1.14349   -2.18060
      H1   -11.86073    0.61508   -2.87229
       H   -13.80606    2.41663    1.99184
       O   -14.41270    2.13162    2.69882
      H1   -14.26570    2.85905    3.36191
       H   -10.43481   -1.76505    8.16057
       O   -10.38349   -1.94646    7.20165
      H1   -10.09936   -2.92467    7.25740
       H    -2.79431    0.51962   -4.38414
       O    -2.94301    0.09485   -3.51941
      H1    -2.15583    0.34630   -3.02220
       H    -3.88421   -0.87785   -2.05873
       O    -3.84035   -1.28013   -1.15708
      H1    -4.08642   -0.49543   -0.65101
       H    -5.41824    3.93833   -2.23142
       O    -5.33115    3.30784   -2.99346
      H1    -5.94137    3.64452   -3.68728
       H   -12.51530    2.57981    5.12004
       O   -12.65613    2.10838    5.95775
      H1   -12.79121    1.18731    5.60652
       H   -12.78586   -3.26090    0.73740
       O   -11.96784   -3.79778    0.78280
      H1   -11.94842   -4.08716    1.69956
       H    -9.01608    3.03034    6.59241
       O    -8.51702    2.35503    7.09150
      H1    -9.22075    1.84192    7.48583
       H    -5.45295   -1.54749    2.80528
       O    -5.42849   -1.83110    1.83838
      H1    -6.33696   -2.07724    1.65866
       H    -6.32404    2.98373    6.89158
       O    -5.39222    3.01988    7.08581
      H1    -5.13175    3.97151    7.13772
       H   -11.19859    0.18371    8.21336
       O   -10.90013    1.03725    7.87960
      H1   -11.49779    1.26519    7.08796
       H    -6.76235    4.86804   -0.40552
       O    -5.92365    5.02832   -0.84526
      H1    -5.98644    5.92501   -0.87543
       H    -6.88579   -5.97121   -0.69831
       O    -7.79500   -6.19847   -0.50367
      H1    -7.86465   -5.82458    0.36916
       H   -11.72352   -2.04917    3.61150
       O   -10.96657   -2.46634    4.01572
      H1   -11.14521   -3.40631    3.79174
       H    -7.67664    4.57127    5.24942
       O    -7.13218    4.83638    6.01526
      H1    -6.26524    5.13964    5.67234
       H    -5.37110    7.62017    4.95179
       O    -5.07859    6.74804    4.63573
      H1    -5.72850    6.44995    4.00058
       H   -12.23648    1.42961    0.53681
       O   -12.40920    0.55585    0.93515
      H1   -11.83821   -0.04831    0.42856
       H   -10.84492    6.11821    3.11928
       O   -10.17477    5.46583    3.16784
      H1   -10.51855    4.85905    2.49044
       H    -6.88864    1.43713    4.08864
       O    -7.80801    1.60826    4.03318
      H1    -8.03712    0.67642    4.13075
       H    -9.15634   -0.92409    3.64648
       O    -8.71600   -0.73655    2.81868
      H1    -8.69518   -1.62331    2.44969
       H    -5.08096   -3.63593    2.50558
       O    -4.83782   -4.53540    2.69594
      H1    -4.59640   -4.54044    3.63483
       H    -0.69220    5.25842   -0.05087
       O    -1.65718    5.08419   -0.04220
      H1    -1.63539    4.86509    0.93886
       H    -7.78222   -3.81564    1.30449
       O    -8.15526   -2.87218    1.15958
      H1    -7.71664   -2.71176    0.29418
       H    -9.71403   -1.53949   -4.38513
       O    -8.96928   -1.27751   -4.94883
      H1    -8.40912   -0.73864   -4.37392
       H   -12.93136   -1.05498    4.95190
       O   -12.60521   -0.75592    5.84274
      H1   -11.90702   -1.40369    5.85765
       H    -8.54640    5.96445    2.26848
       O    -7.61353    6.23169    2.14102
      H1    -6.99056    5.51900    2.25986
       H    -2.45011   -1.53541    3.66125
       O    -1.98084   -2.22829    4.17466
      H1    -1.79863   -2.94012    3.53375
       H    -7.05549    0.25098   -2.41800
       O    -6.88254   -0.45880   -3.08300
      H1    -6.65382   -1.26870   -2.55181
       H    -4.78565   -1.10590    7.32239
       O    -5.61892   -0.65121    7.17583
      H1    -5.39560    0.26158    7.13602
       H    -8.81259   -1.04274    9.55272
       O    -8.11460   -0.92010    8.93048
      H1    -7.58172   -0.21570    9.34024
       H    -0.65895    4.42846    2.79241
       O    -1.46010    4.96758    2.58178
      H1    -1.99771    4.77070    3.41367
       H   -10.31998    0.83536    3.07047
       O   -10.70878    1.63746    3.47635
      H1   -10.03664    1.84058    4.17684
       H    -6.39128   -5.08451    2.28269
       O    -7.32391   -5.25282    2.06694
      H1    -7.75263   -5.16051    2.98595
       H    -6.31605    2.15973   -1.74253
       O    -7.13409    1.68415   -1.44606
      H1    -6.97671    1.56335   -0.50321
       H   -10.28468    3.27272    1.07726
       O   -11.11454    3.39533    1.51686
      H1   -11.08476    2.79314    2.32428
       H    -4.73185    4.14585    0.15531
       O    -4.11373    3.64646    0.71580
      H1    -3.28799    3.79400    0.18626
       H    -2.49645    0.78701    3.94847
       O    -2.87622    0.27452    3.26191
      H1    -3.77443    0.35851    3.43863
       H    -5.30906   -2.43611   -1.19611
       O    -6.21025   -2.76952   -1.39574
      H1    -5.94619   -3.64872   -1.70614
       H    -8.27440    3.17216   -0.91720
       O    -8.58135    3.92403   -0.41108
      H1    -9.00851    4.50251   -1.08235
       H   -14.17783   -1.55793    3.38728
       O   -13.21014   -1.38449    3.18859
      H1   -13.16975   -0.68832    2.49710
       H    -8.83550   -4.70518    6.48586
       O    -9.18152   -4.41691    7.36967
      H1    -8.31416   -4.21655    7.70858
       H   -11.34889   -6.10479    2.63852
       O   -11.29763   -5.29824    3.21818
      H1   -12.17710   -5.35929    3.62208
       H   -10.00019    4.42794    4.75036
       O    -9.99130    4.15025    5.64962
      H1    -9.96275    4.98771    6.13967
       H    -8.20599    7.18459    0.73159
       O    -8.48601    7.53944   -0.13889
      H1    -8.62566    8.45885    0.10299
       H    -7.12845   -1.57966    4.43179
       O    -6.17454   -1.85516    4.50618
      H1    -5.99951   -1.56376    5.41574
       H    -3.49732   -3.95528    6.47453
       O    -3.21114   -3.00944    6.63078
      H1    -2.79772   -2.89975    5.71035
       H    -6.24223   -0.03667    1.14250
       O    -6.77858    0.81398    1.18174
      H1    -7.39237    0.65199    1.89913
       H    -9.68144   -5.38571    4.13143
       O    -8.69693   -5.52601    4.30140
      H1    -8.73323   -6.46117    4.47371
       H   -11.89382    4.83629    0.02807
       O   -12.01822    5.25280   -0.82635
      H1   -12.13735    4.52812   -1.41186
       H    -3.10786    0.99054    1.11085
       O    -3.73387    0.99246    0.39316
      H1    -4.21934    1.82317    0.44471
       H    -9.14979    0.40383    6.08397
       O    -8.95552   -0.42074    5.64322
      H1    -9.36652   -1.06506    6.20095
       H   -11.05622   -1.22410   -1.96492
       O   -11.42685   -1.40692   -2.86118
      H1   -12.28100   -1.78573   -2.58639
       H    -6.46301    0.14864   -6.03813
       O    -6.07568    0.77803   -5.37689
      H1    -5.95563    0.23860   -4.56769
       H    -6.38636    3.03723    2.28776
       O    -6.21387    3.93450    2.56601
      H1    -5.29049    4.03677    2.34622
       H    -4.90099    2.18426    5.05975
       O    -4.99988    1.84636    4.12012
      H1    -4.66630    2.59638    3.59413

