180
frame 11 | Written by MDAnalysis XYZWriter (release 2.4.3)
       H    -4.60151    4.75042    6.23578
       O    -5.00723    5.26384    5.50155
      H1    -5.71100    5.74034    5.96989
       H    -2.45614    3.32626    6.85824
       O    -3.36174    3.17756    6.40948
      H1    -3.17276    2.41188    5.81639
       H    -4.60110    7.62114    0.83756
       O    -3.99849    7.21810    0.18541
      H1    -3.52557    6.56351    0.77133
       H   -10.44759    8.62107   -3.02654
       O   -10.44851    7.66922   -2.81169
      H1   -11.28245    7.49861   -3.26970
       H    -8.91320    2.95573   -1.20763
       O    -9.33837    2.91584   -0.35300
      H1    -8.79081    2.29669    0.08207
       H   -13.49787    3.33364    3.17090
       O   -14.19260    4.01954    3.19325
      H1   -13.90523    4.70189    2.52298
       H   -13.23870    4.12621   -1.46105
       O   -13.31053    3.59575   -0.69801
      H1   -14.24107    3.66583   -0.37631
       H   -11.08408    0.48164   -1.75380
       O   -11.74905    1.08378   -1.34626
      H1   -11.37065    1.93779   -1.61143
       H    -6.71664    9.18171    7.98052
       O    -5.94545    9.48100    7.53519
      H1    -5.84487   10.38033    7.87154
       H    -2.83849    8.38497    6.77408
       O    -2.83750    8.31925    5.80712
      H1    -2.60713    7.40797    5.66698
       H    -5.03493    5.09165   -1.91992
       O    -4.36117    4.40398   -2.20933
      H1    -4.75032    4.30814   -3.12602
       H   -10.23112   12.30101    2.89380
       O   -10.22700   13.03205    3.57571
      H1    -9.48881   13.64099    3.32862
       H   -12.21797    5.32593    5.33184
       O   -12.98106    4.77043    5.51073
      H1   -13.38505    4.65935    4.59737
       H    -8.96062    4.84921    8.80058
       O    -8.64089    5.55727    9.40526
      H1    -9.39762    5.63010   10.03327
       H    -3.08008   10.72959    1.16245
       O    -3.38327   11.24025    1.88566
      H1    -3.00135   10.74600    2.63799
       H    -9.25337    4.13174    7.06252
       O    -8.55937    3.68432    7.53821
      H1    -9.08760    2.93105    7.81526
       H    -6.91405    3.39274    7.84078
       O    -6.03154    3.03457    8.06678
      H1    -5.51638    3.90633    8.21963
       H   -12.44492    1.76726    6.50272
       O   -11.74657    2.27320    6.00435
      H1   -12.23471    3.01634    5.70003
       H    -6.48640    6.67746   -1.12894
       O    -5.83865    6.67780   -1.79713
      H1    -5.18370    7.08186   -1.25549
       H    -8.36527   11.38821    1.08043
       O    -7.49697   11.26303    0.63019
      H1    -6.96186   10.71457    1.28366
       H    -8.05400    6.14132    5.89591
       O    -7.36144    6.77759    5.87579
      H1    -7.29985    7.06305    4.96175
       H    -4.43804    8.62197    4.76041
       O    -5.37277    8.89431    4.71921
      H1    -5.58498    9.11896    5.65254
       H    -4.90651    9.92172    1.71549
       O    -5.30444    9.08025    1.43822
      H1    -5.27271    8.64552    2.28251
       H   -11.30178   10.81418    1.82646
       O   -10.56494   11.34688    1.49978
      H1   -11.00439   11.86815    0.79467
       H    -7.03757    9.99893   -2.07144
       O    -7.75938    9.62019   -1.50958
      H1    -7.74194   10.27509   -0.74454
       H    -9.97231    6.53863    3.25017
       O    -9.43989    5.76831    3.20793
      H1    -9.85126    5.41602    2.39135
       H    -8.34924    3.85748    4.26803
       O    -8.84002    3.01561    4.29272
      H1    -8.39816    2.42334    4.88839
       H    -1.04199    7.77831   -0.90212
       O    -1.58161    8.24681   -0.24374
      H1    -2.44671    7.77570   -0.29523
       H    -1.54393    5.45539    1.46974
       O    -2.53297    5.46475    1.64977
      H1    -2.53841    5.87400    2.50881
       H    -9.74838    9.56206    4.11662
       O   -10.66993    9.66433    4.44695
      H1   -10.68379   10.51071    4.84010
       H    -7.37917    9.98773    4.05827
       O    -8.05526    9.62169    3.51284
      H1    -7.62848    9.05513    2.84915
       H   -13.09497    7.24236    8.35783
       O   -13.44786    6.48817    7.86555
      H1   -13.10088    6.75371    6.95122
       H    -7.37619    6.23836    2.48669
       O    -6.55886    6.59781    2.80637
      H1    -6.09519    5.82406    3.14861
       H   -13.52872   11.41678    2.44117
       O   -13.12335   10.52561    2.37580
      H1   -13.94466    9.94932    2.21430
       H    -2.14784    5.16640    4.78109
       O    -2.60028    5.92407    4.41959
      H1    -3.47244    5.75893    4.80948
       H    -5.41524   12.95078    4.45944
       O    -5.87523   13.07934    3.59041
      H1    -6.48669   13.81287    3.82864
       H    -7.74373    7.38975    7.33405
       O    -8.07822    7.85959    8.09759
      H1    -8.32515    7.12586    8.68939
       H   -11.15574    2.07568    2.17974
       O   -11.13492    2.60876    2.99177
      H1   -10.15872    2.63088    3.20395
       H    -5.37310    2.83441   -1.96248
       O    -5.66463    1.93257   -1.81631
      H1    -5.76370    1.93006   -0.87867
       H    -9.70347    5.53341    0.40491
       O   -10.58148    5.18586    0.56734
      H1   -10.32270    4.28137    0.38525
       H    -4.39657    3.36837   -0.34919
       O    -4.45168    3.43903    0.59861
      H1    -3.94076    4.28646    0.66681
       H    -4.31121    1.16740    4.66631
       O    -3.35210    1.14773    4.44716
      H1    -3.14399    0.25356    4.81347
       H    -4.83630    9.56474   -3.68481
       O    -5.81179    9.57644   -3.44812
      H1    -6.04666    8.85326   -4.10600
       H    -7.13990    2.78291   -2.64073
       O    -8.02287    3.16710   -2.85569
      H1    -7.76512    3.81315   -3.55304
       H   -10.00973    5.46664    5.14290
       O   -10.20814    5.67423    6.09758
      H1   -10.46054    6.64776    6.13310
       H    -8.45404    6.01457   -1.33158
       O    -8.04091    6.47069   -0.54830
      H1    -8.21676    7.40036   -0.77446
       H   -11.83045    8.28645    2.14680
       O   -11.47045    7.53392    2.63626
      H1   -12.02836    7.56756    3.44025
       H   -12.34139    7.14171   -0.41825
       O   -12.55719    7.92167   -0.94149
      H1   -11.76806    8.04474   -1.49027
       H    -7.64762   -0.71270    4.36831
       O    -7.17127   -0.72852    5.22185
      H1    -6.88940    0.20275    5.27420
       H   -13.00957    8.52816    5.30488
       O   -13.17572    7.65763    5.06047
      H1   -14.06812    7.49032    5.30441
       H   -10.38893    8.92098    6.17868
       O   -10.50784    8.26677    6.88831
      H1    -9.63165    8.10947    7.29132
       H    -6.70333    0.43449    1.76895
       O    -7.59221    0.74387    1.58019
      H1    -8.10568    0.03516    2.00874
       H   -12.68871    6.24488    1.71520
       O   -13.26734    5.52793    1.36198
      H1   -12.60188    5.02516    0.88395
       H    -4.41211   -0.36733    1.59690
       O    -4.60023    0.37325    0.92316
      H1    -4.60914    1.18229    1.40909
       H    -7.20573   13.34797    0.62891
       O    -7.44901   14.30571    0.37149
      H1    -6.61902   14.60287   -0.01898
       H    -8.65716    7.21154   -3.22082
       O    -8.09598    6.56427   -3.70971
      H1    -7.26361    6.65050   -3.25110
       H    -3.15954   11.74560    5.69069
       O    -2.25722   11.30996    5.69133
      H1    -2.50678   10.45110    5.95763
       H   -10.93568   10.91723   -1.81245
       O   -10.32539   10.48688   -2.44928
      H1    -9.52866   10.43737   -1.95422
       H    -6.90137    2.61256    2.08552
       O    -6.40347    3.28644    2.59970
      H1    -5.84106    3.64046    1.82681
       H    -5.80705    2.08919    6.26851
       O    -6.05507    1.80225    5.32820
      H1    -5.96773    2.61250    4.81545

