180
frame 0 | Written by MDAnalysis XYZWriter (release 2.4.3)
       H    -9.25525   19.49653   14.58851
       O    -9.79554   19.76666   15.35640
      H1    -9.52595   19.17879   16.10259
       H    -2.66187   14.63656    7.77484
       O    -2.07028   14.64938    6.97150
      H1    -1.16419   14.84301    7.38076
       H   -14.42263   17.49479    9.02580
       O   -15.30593   17.82495    9.40377
      H1   -15.84642   17.82899    8.60896
       H    -8.05661   15.53127   17.65742
       O    -8.94824   15.69702   17.79443
      H1    -9.41126   15.48500   16.99336
       H    -8.13840   14.66698   14.54231
       O    -9.05107   14.72161   14.25460
      H1    -8.96071   13.97803   13.65150
       H    -2.94060   10.62744   12.52779
       O    -2.26842    9.86946   12.38968
      H1    -1.46243   10.38308   12.61634
       H    -3.27740   17.47463   11.06877
       O    -3.73766   17.93614   11.83167
      H1    -3.08279   18.64919   12.00383
       H    -3.22773   13.74017    5.77063
       O    -3.80678   13.10763    5.32233
      H1    -4.23443   12.65249    6.03019
       H    -5.39063   16.48463    6.45298
       O    -4.85088   15.71034    6.60709
      H1    -5.15222   15.11628    5.79817
       H   -14.70180   16.46668   13.18987
       O   -14.22108   17.25156   12.82326
      H1   -13.28243   17.08332   13.08171
       H    -6.41143   15.41590   14.09642
       O    -6.40940   14.83412   14.92682
      H1    -5.51170   15.12091   15.33766
       H    -9.55972   12.37988    9.16662
       O    -9.13968   11.55244    8.87861
      H1    -9.88151   10.98553    8.93497
       H    -8.48450   19.44971   11.48268
       O    -9.28623   19.21564   12.02527
      H1    -9.53848   18.38825   11.58804
       H   -13.43256   19.06055   15.53638
       O   -12.82610   18.91327   16.28839
      H1   -12.07481   19.52027   16.10610
       H    -9.80555   17.59488    8.35266
       O    -9.53437   16.69744    8.64629
      H1   -10.30979   16.32332    9.09202
       H   -11.06854   13.77131   10.13608
       O   -10.73635   13.67589    9.26136
      H1   -11.48688   13.54151    8.70499
       H    -8.37387   12.14252   12.26978
       O    -9.01930   12.35682   12.95511
      H1    -9.57742   11.48803   12.86640
       H   -12.25719   11.10556    9.30990
       O   -11.72087   10.39764    8.89068
      H1   -12.03871   10.21324    8.00195
       H   -10.51422   10.03161   14.01092
       O   -10.82057   10.49699   13.23187
      H1   -10.70458    9.82006   12.56176
       H    -9.26342   18.70802   18.34342
       O    -8.85857   18.35977   17.53119
      H1    -8.80603   17.43101   17.79779
       H    -6.75362   14.77938    9.08745
       O    -6.60683   14.24358    8.29012
      H1    -6.01849   14.81550    7.81801
       H    -5.86025   16.21872   18.42757
       O    -6.00430   15.91857   17.54232
      H1    -6.45154   16.68808   17.10455
       H    -7.08270   12.83062   15.63377
       O    -7.52249   11.95315   15.46043
      H1    -7.92776   12.20328   14.58137
       H   -10.64658   16.64730   12.50976
       O    -9.97577   16.42341   11.81709
      H1   -10.43801   15.71491   11.45121
       H    -8.93087   15.51335    7.18916
       O    -8.33709   15.24243    6.43977
      H1    -7.61598   14.71018    6.87199
       H    -7.99135   11.34181   10.17258
       O    -7.42065   11.38574   10.97395
      H1    -6.59982   11.88223   10.68639
       H    -3.26931   15.36073   15.88331
       O    -3.71866   15.76478   15.15253
      H1    -3.59307   16.70676   15.44495
       H   -11.77947   14.59173   16.03251
       O   -11.04618   15.21035   16.01073
      H1   -10.48267   14.77401   15.34296
       H   -10.82701   12.96505   12.25156
       O   -11.64038   13.40411   11.95688
      H1   -12.20779   12.60118   11.82482
       H     0.71266   15.80905   11.44895
       O     0.18630   16.59027   11.81697
      H1    -0.52819   16.05996   12.21529
       H    -5.42827   11.11336    7.70186
       O    -5.01710   11.98349    7.71352
      H1    -5.69326   12.60968    7.88926
       H    -5.08541    9.82696   11.77536
       O    -5.02866    8.88343   11.81342
      H1    -4.13505    8.71412   12.08551
       H    -3.60893   12.45747   11.53490
       O    -4.13620   11.86920   12.08113
      H1    -4.18597   12.21958   13.01425
       H    -4.07164   12.77621   15.86822
       O    -3.76947   12.20244   15.09360
      H1    -3.44124   11.36788   15.40857
       H    -7.32938   16.70231   11.29959
       O    -7.20412   16.51929   10.33586
      H1    -8.08191   16.69816    9.93023
       H    -1.88718   13.05478    9.92378
       O    -2.49700   13.44510   10.58011
      H1    -2.48326   14.37994   10.27042
       H    -2.86971   16.74310    9.18819
       O    -2.50846   16.27889    9.97873
      H1    -1.58685   16.49722    9.87230
       H    -7.30117   16.53188    5.95605
       O    -6.79984   17.31835    5.77801
      H1    -7.19502   17.91384    6.48847
       H    -8.60818   19.89466    7.38200
       O    -8.06773   19.13908    7.66212
      H1    -7.68808   19.55962    8.48637
       H    -6.90082   12.92281    4.85209
       O    -6.96720   11.99864    4.52540
      H1    -7.76218   11.56204    5.06936
       H   -13.34054   16.43582   10.80345
       O   -12.77883   16.92626   10.23414
      H1   -12.69510   17.76145   10.70448
       H    -5.15028   14.03749    4.47447
       O    -5.98716   14.49615    4.53440
      H1    -5.98077   15.04020    3.73276
       H   -14.34802   17.72770    6.91558
       O   -13.63628   17.14169    7.22094
      H1   -13.94549   16.27836    6.90572
       H    -5.00205   14.35128   17.43063
       O    -4.27390   13.66252   17.35319
      H1    -4.63255   12.93149   17.87486
       H     0.58500   18.51724    9.34282
       O    -0.08091   17.79515    9.39516
      H1     0.06256   17.64050   10.36525
       H    -1.95191   13.90994   12.81978
       O    -1.68588   14.77316   13.16319
      H1    -2.54623   15.07564   13.49098
       H    -9.00547   12.02308    7.04195
       O    -9.27453   12.17592    6.12831
      H1    -9.76498   11.37299    6.02545
       H    -7.48867   18.40473   16.42764
       O    -6.97089   18.03926   15.72115
      H1    -6.22247   18.66577   15.65589
       H    -9.55877   15.84186    4.89635
       O    -9.55529   16.44525    4.13880
      H1   -10.43360   16.23977    3.74633
       H    -2.35301   11.25207    9.14397
       O    -3.05279   10.62016    9.01248
      H1    -3.73893   11.18398    8.69530
       H    -6.78760   16.97020   14.04510
       O    -7.11559   16.75562   13.13937
      H1    -8.02212   16.46638   13.30777
       H    -2.86276   16.76897    6.56498
       O    -2.33901   17.61695    6.72858
      H1    -2.58072   18.12894    5.96264
       H    -7.89351   18.55388    4.91885
       O    -8.39366   19.02707    4.19732
      H1    -8.86815   18.17268    4.01911
       H   -10.30690   18.70483    5.18607
       O   -11.21420   18.88321    5.40463
      H1   -11.68910   18.02969    5.39970
       H    -5.89018   17.55968    9.49475
       O    -5.43142   18.38696    9.73163
      H1    -5.02796   18.14544   10.62545
       H   -12.03831   18.51228    7.90971
       O   -11.47087   19.15580    8.34341
      H1   -11.33905   19.66545    7.50558
       H   -11.48846   17.93500   14.03991
       O   -11.64879   17.04487   13.68443
      H1   -11.39678   16.46791   14.52179
       H   -12.74995   13.67593    5.87761
       O   -12.09796   13.39504    6.55377
      H1   -11.28115   13.30720    6.08999
       H    -2.46838   17.89523   16.78479
       O    -2.69557   18.58102   16.11327
      H1    -1.91261   19.19953   16.20580
       H   -14.06520   14.45230   11.48253
       O   -14.56074   14.49601   10.70245
      H1   -15.24328   15.07950   10.95822

