180
frame 9 | Written by MDAnalysis XYZWriter (release 2.4.3)
       H    16.92376  -17.52988    3.59228
       O    16.62179  -17.21402    2.75101
      H1    15.78229  -16.74753    2.98487
       H    11.31636  -13.16112   -4.33512
       O    10.66982  -13.21856   -5.04373
      H1    10.52311  -12.31237   -5.28748
       H    17.21121  -18.34508   -2.30830
       O    16.85336  -17.49235   -2.43832
      H1    17.65512  -16.91133   -2.15573
       H    12.43441  -14.87072   -2.31188
       O    12.35917  -15.70701   -1.85513
      H1    11.98039  -16.34911   -2.45294
       H    12.54207   -9.60684   -6.88563
       O    13.13999  -10.13473   -6.32159
      H1    13.21326   -9.59674   -5.54177
       H    15.60692   -5.27789   -4.07782
       O    16.05143   -4.56462   -3.57440
      H1    16.78617   -5.06909   -3.19159
       H    16.39303  -14.30946    6.52725
       O    16.51632  -15.09235    7.08334
      H1    15.69090  -15.55474    6.83642
       H    12.09867  -15.28496   -7.11178
       O    12.53968  -14.46592   -7.34716
      H1    12.80998  -14.09596   -6.50646
       H    11.92367  -14.06687    2.36076
       O    11.53723  -13.64373    3.13909
      H1    10.93705  -12.98688    2.78410
       H    12.89479   -4.58764   -3.70648
       O    12.78965   -5.07435   -4.56357
      H1    12.16430   -5.78436   -4.30576
       H    18.36784  -11.06623   -2.38985
       O    17.83904  -11.47488   -3.08771
      H1    17.34580  -10.65652   -3.34460
       H    13.13104  -10.70121   -1.45378
       O    12.44773  -10.51125   -2.11940
      H1    11.68483  -10.89653   -1.71366
       H    13.93787   -6.00267   -1.96285
       O    13.50659   -5.12493   -2.05040
      H1    14.08313   -4.51876   -1.61830
       H    18.00895  -18.94391    0.49962
       O    17.07911  -19.29125    0.66602
      H1    16.85505  -18.82988    1.52967
       H    13.10366   -7.86371   -3.77515
       O    13.67235   -8.30872   -4.39634
      H1    13.88392   -7.56206   -5.03314
       H    14.82924   -6.15621   -6.52025
       O    15.01138   -6.15114   -5.57379
      H1    14.20421   -5.65913   -5.29558
       H    10.96708   -7.95987   -1.72622
       O    11.53198   -8.09892   -2.51135
      H1    11.81062   -8.98252   -2.32707
       H    18.77587  -12.29793   -4.98558
       O    19.49293  -12.10318   -5.65633
      H1    19.69778  -12.98766   -6.01993
       H    17.78208   -2.81278   -5.32475
       O    17.00027   -3.17929   -5.69016
      H1    16.56557   -3.59017   -4.90322
       H    17.66933   -6.54579   -1.23175
       O    17.43654   -6.37672   -2.18057
      H1    18.31434   -6.53019   -2.51582
       H    16.11321  -15.49873    0.41602
       O    16.60759  -14.85316    0.92380
      H1    17.02746  -15.40292    1.62163
       H    16.80296   -7.97032   -7.25032
       O    17.24012   -8.02176   -6.37493
      H1    16.95937   -8.87702   -6.01273
       H    17.27130   -3.41466    0.31074
       O    17.93789   -3.52854    1.00039
      H1    18.38186   -2.68680    0.93858
       H    17.01447  -13.05888   -6.73904
       O    16.48737  -13.40081   -7.45958
      H1    17.05965  -13.25098   -8.25852
       H    17.41887  -14.47108   -4.43324
       O    17.20761  -13.55992   -4.64301
      H1    17.50184  -12.99439   -3.87549
       H    13.36075  -16.38401    2.25082
       O    13.62647  -15.43694    2.07614
      H1    14.28361  -15.58833    1.40399
       H    17.57940   -7.21831    5.13487
       O    18.17388   -6.81565    4.42531
      H1    18.67502   -6.21340    4.99383
       H    15.85913   -7.39539   -1.90275
       O    14.88761   -7.43233   -1.77431
      H1    14.78333   -8.39620   -1.76626
       H    10.39171  -11.00602   -7.00125
       O    10.53702  -10.69494   -6.11876
      H1    11.48256  -10.42737   -6.10827
       H    13.44143  -13.24553   -3.48253
       O    12.66200  -13.22132   -2.94071
      H1    12.87360  -12.46851   -2.37829
       H    10.13290  -10.70459    2.25380
       O    10.89241  -10.99940    1.71950
      H1    10.55391  -11.21342    0.84196
       H    16.72622   -8.05203    6.93856
       O    17.29121   -7.96203    7.75496
      H1    18.18295   -7.84918    7.37168
       H    15.52133  -11.52458   -7.31508
       O    15.47506  -10.54103   -7.19185
      H1    14.52692  -10.39224   -7.14470
       H    13.93750   -8.45713    2.59924
       O    14.89632   -8.41033    2.79783
      H1    15.19353   -7.90977    2.04876
       H    18.13563  -10.48072   -9.39943
       O    19.02743  -10.25285   -9.57979
      H1    19.51189  -10.75942   -8.87258
       H    15.88237  -10.53527   -9.08590
       O    16.06192  -10.76269   -9.98457
      H1    16.12286   -9.81098  -10.29317
       H    14.17447  -14.30471    5.05307
       O    14.68547  -14.97648    4.58248
      H1    14.23113  -15.01480    3.72024
       H    12.09109   -7.79223    5.16833
       O    12.00446   -8.48531    4.49406
      H1    12.16743   -7.90259    3.74506
       H    19.85299  -10.19994   -1.69521
       O    19.37821  -10.79953   -1.11644
      H1    18.99165  -10.17440   -0.50362
       H    16.50693  -18.02953   -6.29949
       O    16.89955  -18.53490   -7.05463
      H1    16.19427  -19.02643   -7.48676
       H    15.24677  -17.05638   -1.50604
       O    14.96213  -16.65904   -0.69622
      H1    14.09514  -16.25950   -0.80115
       H    17.78348   -4.71541   -6.72628
       O    18.20554   -5.50351   -6.99368
      H1    17.68652   -6.19748   -6.50966
       H    15.95830   -3.91399   -1.54050
       O    15.42097   -3.77980   -0.78148
      H1    15.18132   -2.85598   -0.88303
       H    14.84532  -15.04881   -5.14184
       O    14.49898  -14.18030   -4.86689
      H1    15.42770  -13.86641   -4.58720
       H    15.64843   -7.04106   -0.30434
       O    16.14522   -6.85315    0.49576
      H1    15.96165   -5.89218    0.64975
       H    15.64909  -10.25630   -5.45967
       O    16.11431   -9.89304   -4.72191
      H1    15.54473   -9.11736   -4.54985
       H     9.35605  -11.14916   -1.45345
       O    10.02522  -11.57547   -0.92352
      H1     9.69753  -12.49418   -0.96419
       H    18.43709  -13.75575   -0.32531
       O    19.41626  -13.81789   -0.41479
      H1    19.61838  -13.90669    0.49832
       H    10.95413   -6.42800    0.01032
       O    10.74832   -7.36777    0.10036
      H1     9.73950   -7.41380   -0.03717
       H    14.99634  -17.95031    1.66857
       O    14.12217  -18.37365    1.53426
      H1    14.06009  -18.19266    0.58840
       H    16.75998  -10.72607    7.37423
       O    16.95221  -11.60889    7.72700
      H1    17.84849  -11.49391    8.08223
       H    14.05360   -9.35619    0.06478
       O    14.57035  -10.03351   -0.42485
      H1    15.34269  -10.17126    0.15369
       H    18.19765  -11.44048    4.79887
       O    18.76177  -11.83523    4.14558
      H1    18.57130  -12.80606    4.27115
       H    19.17214  -15.09409   -1.65539
       O    19.05740  -15.99052   -1.96172
      H1    19.73076  -16.11506   -2.64560
       H    16.04167  -17.31182   -4.24494
       O    15.54250  -16.94492   -4.95764
      H1    14.67536  -17.33305   -4.78823
       H    12.12482   -8.15386    0.97806
       O    12.65992   -8.74126    1.45521
      H1    12.13844   -9.56607    1.60767
       H    15.16385   -5.81787    3.33267
       O    14.63369   -5.13233    2.90333
      H1    13.80417   -5.57440    2.71769
       H    16.81672  -10.00498    1.67431
       O    17.16422   -9.58423    0.84770
      H1    17.09864   -8.64458    0.92911
       H    16.91125  -14.35912    3.81925
       O    17.65311  -14.30327    4.40530
      H1    17.31455  -14.70870    5.18081
       H    15.38224   -7.96283    4.44491
       O    15.59360   -7.63883    5.35004
      H1    14.74818   -7.26283    5.50998

