180
frame 8 | Written by MDAnalysis XYZWriter (release 2.4.3)
       H    17.47323  -14.05567   -6.59758
       O    17.10408  -14.34324   -7.44898
      H1    17.11629  -13.56877   -8.04814
       H    18.75996  -14.84874   -8.18341
       O    19.57209  -15.40426   -8.29062
      H1    19.33447  -16.19301   -8.84344
       H     8.61214  -18.02251   -5.16720
       O     7.99755  -18.47222   -5.74899
      H1     7.19243  -17.97630   -5.80792
       H     7.74155   -8.36354  -12.41110
       O     7.31310   -9.17662  -12.09085
      H1     7.84362   -9.91408  -12.35676
       H    17.37807  -18.87338  -12.48921
       O    17.17714  -18.06073  -12.95875
      H1    16.21348  -17.98629  -13.11908
       H    18.39391   -8.88869   -8.70745
       O    18.29026   -9.68830   -8.20542
      H1    17.89418   -9.50823   -7.30631
       H    13.99358  -16.55174   -2.43734
       O    13.44468  -15.76123   -2.63026
      H1    13.08491  -16.17078   -3.42188
       H    11.74360   -9.91224  -11.61782
       O    11.43109   -8.99096  -11.40220
      H1    12.04271   -8.34078  -11.71804
       H    11.71410   -8.63611   -9.82082
       O    11.89296   -8.38367   -8.92242
      H1    12.83564   -8.44670   -8.70546
       H    13.40257  -18.12526   -5.19910
       O    12.44392  -18.36228   -5.11392
      H1    12.07143  -17.87129   -5.82052
       H     9.77711  -20.29427  -15.42742
       O    10.11846  -19.76783  -14.76001
      H1    10.16587  -18.85953  -15.23964
       H     8.23753  -14.11001   -2.54987
       O     8.22040  -14.76203   -3.23847
      H1     8.89082  -14.58457   -3.90241
       H    15.19807  -13.38841  -16.01702
       O    14.88745  -14.11797  -15.54339
      H1    15.52523  -14.41351  -14.88883
       H    17.62781  -12.04610   -4.46114
       O    16.98752  -11.47808   -3.90703
      H1    16.81659  -10.79148   -4.60186
       H     8.60761  -17.73472   -9.21252
       O     8.42331  -16.76926   -9.06212
      H1     7.63086  -16.68475   -9.57444
       H    14.95051  -17.05080   -6.06940
       O    15.24168  -17.73738   -5.42095
      H1    15.39698  -18.45236   -6.08349
       H    12.58038  -16.68505  -15.64906
       O    12.56834  -17.20806  -16.42697
      H1    13.21147  -17.89845  -16.32833
       H    10.06681  -10.01455  -14.38548
       O    10.24608   -9.49267  -15.20141
      H1     9.76141   -8.66250  -15.12115
       H    11.39237  -13.42244   -9.85608
       O    10.45695  -12.99973   -9.94541
      H1    10.07817  -13.73844  -10.47956
       H    13.67320  -11.92120   -8.41800
       O    13.88924  -11.24236   -7.72604
      H1    14.77800  -11.64388   -7.59879
       H     6.76036  -15.08552   -7.34407
       O     7.29848  -15.67314   -6.82386
      H1     7.56236  -16.25738   -7.47895
       H    17.37319  -16.15489  -14.08954
       O    16.96584  -15.29517  -13.95479
      H1    17.66105  -14.65112  -13.69611
       H    12.51910  -11.74422   -6.51393
       O    11.99230  -11.54439   -5.67636
      H1    11.08895  -11.50256   -5.96688
       H    12.79427  -19.86251   -8.67576
       O    13.54668  -19.34848   -9.08524
      H1    13.23793  -18.43965   -9.08128
       H    14.28443  -12.13241  -11.27066
       O    15.24960  -12.24566  -11.32164
      H1    15.41392  -13.18231  -11.45749
       H     8.93428  -19.44845   -7.73465
       O     9.55235  -19.16875   -8.44773
      H1    10.10361  -19.94021   -8.51101
       H    10.10251  -17.48943   -7.17041
       O    10.78993  -16.83043   -6.88623
      H1    10.30619  -16.12564   -6.52201
       H    14.53547  -18.67496  -11.33270
       O    14.67520  -17.74508  -11.54625
      H1    14.13499  -17.63185  -12.33111
       H     8.62404  -11.93600   -7.49498
       O     9.54213  -12.24519   -7.23102
      H1     9.85637  -12.62078   -8.04760
       H    13.57826  -16.09349   -8.53937
       O    12.77064  -16.32880   -8.95404
      H1    12.05566  -16.36836   -8.29242
       H    16.82349  -14.99211   -3.53344
       O    17.12741  -14.12695   -3.30861
      H1    16.39586  -13.63205   -3.62325
       H    12.45952   -9.45562   -6.39652
       O    12.98910   -8.80970   -5.91636
      H1    13.57135   -9.24059   -5.24334
       H    14.56361   -9.61568   -8.13945
       O    14.54703   -8.71178   -8.56089
      H1    14.79535   -8.24952   -7.74227
       H    14.30548  -14.30429   -6.14451
       O    14.61014  -15.04403   -6.67076
      H1    15.43694  -14.68765   -7.09981
       H     9.94675  -15.52303  -11.90512
       O     9.42103  -15.16469  -11.16971
      H1     9.18116  -15.95050  -10.64533
       H     5.34557  -16.64908   -9.90454
       O     6.02080  -16.06417  -10.27952
      H1     5.72272  -15.17903  -10.25862
       H    12.99589  -14.82772   -9.67774
       O    13.28467  -13.93331   -9.82405
      H1    13.97652  -13.95949  -10.44836
       H    10.10569  -19.14807   -3.43587
       O     9.84806  -18.21701   -3.63717
      H1    10.80556  -17.97667   -3.64793
       H    13.13257  -12.54850   -4.62705
       O    13.82566  -13.20002   -4.50798
      H1    13.68511  -13.43099   -3.55327
       H    11.69125  -12.60206  -11.37702
       O    12.12599  -11.96863  -11.98226
      H1    12.17565  -12.44118  -12.83185
       H     6.16850  -12.14427   -8.07972
       O     6.96518  -11.47182   -8.00011
      H1     6.76860  -10.82895   -8.70142
       H    12.08784  -13.32633  -15.43615
       O    12.58303  -13.25339  -14.60281
      H1    13.48636  -13.43092  -14.80195
       H    15.65605  -17.38544  -10.07106
       O    16.12107  -17.07514   -9.26172
      H1    15.99271  -17.83534   -8.65209
       H    16.16660   -9.25629  -11.40546
       O    16.31109   -8.50770  -10.82362
      H1    15.92688   -8.66937   -9.97928
       H    10.79085  -17.16879  -16.01915
       O     9.87382  -17.26502  -15.76494
      H1     9.40884  -17.09471  -16.57043
       H     9.96060  -19.04291  -10.30676
       O    10.06757  -19.25495  -11.24680
      H1    11.01989  -19.45524  -11.41284
       H    17.24332  -11.27958   -8.77542
       O    16.55313  -11.93467   -8.82480
      H1    16.19336  -11.84579   -9.73682
       H    11.89280  -16.43338  -13.28099
       O    12.82102  -16.28320  -13.53113
      H1    13.00282  -15.31531  -13.55474
       H     7.66465  -14.07259  -14.01993
       O     7.82185  -13.66691  -13.13662
      H1     8.05913  -14.36371  -12.49138
       H    19.40948  -12.96465  -11.10307
       O    19.17753  -12.43816  -11.89665
      H1    19.99377  -12.35655  -12.42311
       H    10.90382   -9.16746   -7.73162
       O    10.13643   -9.49054   -7.31655
      H1    10.10930  -10.48370   -7.43765
       H    15.90466  -15.23195  -12.41926
       O    15.04617  -15.01052  -11.99248
      H1    14.89066  -15.74247  -11.41874
       H    10.30285  -11.49484  -12.47155
       O     9.50578  -11.33052  -12.99953
      H1     9.06199  -12.20047  -13.10047
       H    16.37436  -17.29156   -4.21589
       O    16.93911  -16.95175   -3.47207
      H1    16.56261  -17.23920   -2.65636
       H    14.08259  -15.00711  -16.96378
       O    13.70343  -15.22101  -17.82658
      H1    13.14781  -15.98073  -17.51790
       H     8.60643  -14.74074   -6.09446
       O     9.48515  -14.60924   -5.78865
      H1     9.70573  -13.69803   -6.02071
       H    15.93460  -11.23601  -12.49068
       O    16.56708  -10.59154  -12.90407
      H1    17.45164  -10.85470  -12.69327
       H     8.52586  -15.45075  -15.55460
       O     7.62672  -15.22473  -15.43127
      H1     7.31661  -15.85241  -14.76583
       H    17.22528  -15.91577  -10.64709
       O    18.00419  -15.85685  -11.26696
      H1    18.04310  -16.73634  -11.76143
       H    10.06381  -17.99867  -12.58831
       O    10.00189  -17.07523  -12.95972
      H1     9.77737  -17.30974  -13.85964

