180
frame 9 | Written by MDAnalysis XYZWriter (release 2.4.3)
       H   -15.49680    1.00991   -9.59111
       O   -15.93728    1.74371   -9.23243
      H1   -15.93884    2.41696   -9.92198
       H   -12.99026    8.28839  -10.96624
       O   -13.15075    7.87018  -10.11992
      H1   -12.31901    8.09166   -9.67906
       H   -12.69842    4.18139  -11.60000
       O   -13.00231    3.80417  -12.45307
      H1   -13.41174    4.52691  -12.96906
       H   -17.91671    1.70569   -9.62407
       O   -18.89479    1.76657   -9.63895
      H1   -19.03148    0.83010   -9.25422
       H    -8.44583   -0.75907  -17.97649
       O    -8.28584   -0.42756  -17.09981
      H1    -8.57823   -1.16077  -16.53890
       H   -11.95855    9.61679  -12.78228
       O   -12.71620    9.06488  -12.57972
      H1   -12.40909    8.24220  -12.90462
       H   -15.70665    3.25312  -13.56566
       O   -16.16685    2.58553  -13.04798
      H1   -15.38579    2.01244  -12.92168
       H   -19.01873    0.64372  -17.95392
       O   -19.53362    1.46341  -18.09316
      H1   -19.51276    1.52867  -19.03934
       H   -16.53287   -3.12914  -14.63330
       O   -17.40177   -3.06308  -15.13472
      H1   -18.11534   -2.86145  -14.48847
       H   -13.60548   -1.13653  -15.50837
       O   -13.63760   -0.18007  -15.53042
      H1   -14.46299    0.07209  -15.09835
       H   -16.04660   -3.08825  -17.81309
       O   -16.03714   -4.07106  -18.07206
      H1   -15.95763   -4.65014  -17.30951
       H   -16.82160    5.47080  -14.41212
       O   -17.62825    6.00906  -14.71884
      H1   -18.41150    5.50662  -14.59360
       H   -14.74139    5.68821  -13.62387
       O   -14.88940    4.85919  -14.12373
      H1   -14.46778    5.03077  -14.98505
       H   -17.53166   -1.24251  -11.89761
       O   -18.43516   -0.81943  -11.92050
      H1   -18.27280    0.15593  -11.92159
       H   -10.62286    8.57536  -16.55438
       O   -10.24154    8.71305  -15.68643
      H1   -10.05821    9.67452  -15.75135
       H   -15.92538    6.57940  -16.88372
       O   -16.79946    6.95364  -17.14857
      H1   -17.38092    6.59067  -16.43154
       H   -18.07795    8.00269  -19.96032
       O   -18.07440    8.43755  -19.12897
      H1   -17.72321    7.80391  -18.45443
       H   -12.17961    9.97302  -17.86827
       O   -12.61490   10.84631  -17.55581
      H1   -11.96560   11.43670  -17.92421
       H   -15.11722   10.76737  -14.69877
       O   -16.00389   10.94244  -15.07622
      H1   -16.56208   10.45559  -14.40601
       H   -15.17716   -1.05009  -18.48195
       O   -15.91040   -1.42790  -17.97196
      H1   -15.78634   -0.86452  -17.14346
       H   -18.33295    6.83455   -8.44222
       O   -19.21124    6.77274   -8.00981
      H1   -18.98680    6.31320   -7.17804
       H   -15.82876   -1.79350   -9.83118
       O   -16.67043   -2.22098  -10.11335
      H1   -16.71097   -2.99539   -9.55386
       H    -8.87901    4.06164  -13.01186
       O    -8.68451    5.03931  -12.97074
      H1    -9.55150    5.41715  -13.33899
       H   -11.39143    8.05627  -19.00064
       O   -10.88780    8.71138  -18.48169
      H1    -9.92732    8.38122  -18.55500
       H   -19.36683   -3.74585  -12.59031
       O   -19.04491   -4.55930  -12.13465
      H1   -18.20721   -4.23988  -11.86080
       H   -12.94312    0.84920  -12.76832
       O   -13.67786    1.07891  -12.13840
      H1   -13.34042    1.99812  -12.03102
       H   -17.70345   -1.13556  -17.40568
       O   -18.67968   -1.02096  -17.32328
      H1   -19.04254   -1.93977  -17.23982
       H   -18.55157    7.20822  -11.60286
       O   -18.58659    8.18925  -11.55949
      H1   -18.26673    8.41517  -10.70912
       H   -13.83034    0.10021  -10.78165
       O   -13.92221   -0.42987   -9.98703
      H1   -13.46662   -1.23082  -10.25216
       H   -17.77577    2.49497  -15.73692
       O   -18.13318    1.90721  -15.04801
      H1   -17.56990    2.25491  -14.28113
       H   -13.97711    4.23481  -19.79757
       O   -14.71399    4.86025  -19.88077
      H1   -14.75901    5.21813  -18.98996
       H   -13.76760    4.04608  -17.08563
       O   -14.50307    4.72656  -17.04004
      H1   -15.30724    4.19775  -17.31926
       H   -14.73071    7.71679  -12.52443
       O   -14.29722    6.83038  -12.44776
      H1   -13.80512    6.96671  -11.60348
       H   -16.11775   10.56932  -19.05343
       O   -15.81513   10.06286  -19.79667
      H1   -16.52651    9.40010  -19.65896
       H   -13.53992   10.07390  -13.75647
       O   -13.52752   10.66990  -14.57240
      H1   -13.19508   10.06803  -15.25624
       H   -12.00848    0.20063  -16.21554
       O   -11.07840    0.57755  -16.12506
      H1   -10.57780   -0.01370  -16.60806
       H   -15.13032   -3.38190  -11.94647
       O   -14.93519   -4.05247  -12.61674
      H1   -14.08024   -3.86333  -12.97975
       H   -10.72573    7.67688  -13.76628
       O   -11.02062    6.77884  -13.41801
      H1   -11.46626    6.39953  -14.20248
       H   -11.19894    0.38850  -14.37486
       O   -11.31807    0.69000  -13.46616
      H1   -10.66379    1.44632  -13.37237
       H   -19.06085    4.94697  -12.36878
       O   -18.85676    5.33847  -11.53676
      H1   -19.74475    5.75136  -11.22017
       H   -11.65805    3.60731   -9.89090
       O   -12.08520    4.49101  -10.05694
      H1   -11.26450    5.00025  -10.30428
       H   -17.62185    4.33616  -17.22812
       O   -17.29574    3.45792  -17.41578
      H1   -17.96638    3.01728  -18.01060
       H   -18.87121   11.18807  -14.10122
       O   -18.63967   10.80515  -13.22308
      H1   -19.21490   10.03483  -13.11724
       H   -17.84706   -4.47260  -18.00174
       O   -18.70955   -4.58683  -18.39823
      H1   -19.31410   -4.43765  -17.69378
       H    -8.22658    2.41214  -17.75152
       O    -7.87248    3.08798  -18.34461
      H1    -8.40108    3.83876  -17.99724
       H   -18.61452   -7.19630  -19.89418
       O   -18.69134   -7.36498  -18.93070
      H1   -18.90771   -6.48066  -18.60500
       H   -12.47157   -3.54031  -14.31343
       O   -12.95266   -2.91102  -14.93336
      H1   -12.92705   -3.56962  -15.70233
       H   -14.89101   -0.50148  -12.69318
       O   -15.77220   -0.89523  -12.75700
      H1   -15.97709   -0.65738  -13.67340
       H   -16.86059   -6.07784  -15.65840
       O   -16.05538   -6.17557  -16.17638
      H1   -15.37607   -6.05962  -15.45750
       H   -10.41636   -3.20837  -15.23242
       O    -9.47063   -3.27706  -15.17612
      H1    -9.19618   -2.79280  -14.38479
       H   -10.18119    4.59800  -17.99867
       O    -9.46945    5.03309  -17.42181
      H1    -9.18070    5.76921  -17.93200
       H   -17.92166   11.75228  -17.19862
       O   -17.20180   11.17540  -17.53949
      H1   -16.66892   11.08270  -16.68681
       H   -18.59139   -6.21454  -14.09618
       O   -18.50164   -5.84857  -14.99732
      H1   -18.26324   -4.94053  -14.84657
       H   -11.00970    5.87698  -16.19582
       O   -11.95469    5.86997  -15.95028
      H1   -12.35516    5.37930  -16.65743
       H   -11.80738   -5.36430  -17.18552
       O   -12.47503   -5.28037  -16.50028
      H1   -12.42525   -6.10089  -16.00346
       H   -12.45686    2.50318  -19.97272
       O   -12.12995    3.17033  -19.25054
      H1   -12.14685    2.50197  -18.50364
       H   -15.58448    9.91106  -11.61783
       O   -15.72662    9.01063  -11.99282
      H1   -16.68906    9.05345  -12.26443
       H   -12.22705    3.26877  -15.47242
       O   -12.19486    3.01929  -16.42166
      H1   -11.77729    2.13542  -16.38261
       H   -16.50412    8.47466  -10.14716
       O   -17.03376    8.35565   -9.36676
      H1   -17.28535    9.30067   -9.28447
       H   -17.24322   -1.21395  -15.39125
       O   -16.62428   -0.44500  -15.29926
      H1   -17.27269    0.28747  -15.43600

