180
frame 9 | Written by MDAnalysis XYZWriter (release 2.4.3)
       H     6.42001   16.90184    1.90570
       O     6.85365   16.05160    2.17020
      H1     7.69741   16.32526    2.49164
       H    -3.29011   14.56226    7.13226
       O    -3.32443   14.56911    6.18399
      H1    -2.39491   14.60676    5.96226
       H     3.17982   16.95590   14.30794
       O     3.86044   17.34546   14.90492
      H1     4.30396   18.09118   14.41959
       H    -3.10186   11.74759   11.62342
       O    -2.28128   11.62613   12.13237
      H1    -2.11434   12.57841   12.44173
       H    -6.78931   14.68054    3.98023
       O    -6.14806   15.12406    4.59513
      H1    -6.38983   16.04159    4.21692
       H    -4.14044   17.67824   10.58029
       O    -4.49649   17.69456   11.45770
      H1    -4.05058   16.89813   11.82629
       H    -0.85235   10.57448    8.09961
       O    -1.62268   10.73092    8.73047
      H1    -1.22412   10.51142    9.58100
       H    -4.53253   12.94461    5.66078
       O    -4.89537   12.08899    5.47862
      H1    -5.27851   11.87178    6.32677
       H    -6.40877   16.90646    7.25139
       O    -5.46113   16.95230    7.47573
      H1    -5.15104   16.24551    6.91939
       H    -0.60478   18.05478    0.24770
       O    -1.26307   17.80408    0.87593
      H1    -1.81375   18.52026    1.08849
       H    -4.39061   15.27880   12.65532
       O    -3.65545   15.69326   13.16256
      H1    -3.83067   15.53447   14.10662
       H     3.03573   14.40025    1.05164
       O     2.77450   13.77195    1.74625
      H1     3.55335   13.62602    2.33621
       H     6.12007   19.32480    1.61255
       O     5.53086   18.81523    2.27261
      H1     4.72407   18.72084    1.73823
       H    -0.44348   16.95572   15.41260
       O     0.21661   16.37225   15.81952
      H1    -0.25607   15.53106   15.70722
       H     0.18394   12.84885    4.53780
       O     0.34096   12.73783    5.45662
      H1    -0.53195   12.37956    5.75508
       H    -4.07436   18.74358    1.73526
       O    -3.31340   19.35983    1.69401
      H1    -3.41756   19.70304    0.78861
       H     3.62848   17.92727   11.59064
       O     4.47622   17.59896   11.92369
      H1     4.75966   17.09479   11.21243
       H     1.30678   16.30086   14.24333
       O     1.95945   15.93832   13.64456
      H1     1.66660   16.25593   12.80006
       H    -6.89925   15.28074   10.00842
       O    -5.99884   15.00656    9.65600
      H1    -5.77955   15.85566    9.29889
       H    -0.61944   15.96400    5.17050
       O    -0.46835   15.43771    5.95195
      H1    -0.12478   14.67000    5.55187
       H     0.24913   17.89191   11.77029
       O    -0.18922   17.44156   12.51899
      H1    -0.66021   18.15271   12.94839
       H    -5.77524   18.57198    4.34655
       O    -5.00270   18.92072    4.79088
      H1    -5.19931   18.79792    5.71575
       H     1.16586   20.22467    1.21140
       O     1.63673   19.80697    1.99563
      H1     1.98709   18.98741    1.72069
       H     3.31517   17.22550    2.09583
       O     3.13292   17.79575    1.32814
      H1     2.79829   17.14591    0.69359
       H    -4.08920   16.17401    4.84836
       O    -3.46346   16.69165    4.29816
      H1    -4.06145   17.42365    4.20621
       H     2.41881   10.80909    8.15345
       O     2.81057   11.72364    7.98247
      H1     3.25199   11.96299    8.85146
       H     0.93615   14.04799    9.99409
       O     1.06356   15.06453    9.94277
      H1     0.19751   15.42792    9.50323
       H     9.28458   14.25409    7.11936
       O     9.24771   15.24511    7.19783
      H1     8.50366   15.51500    6.61531
       H    -3.79953   12.74476   10.06112
       O    -4.57651   12.25601   10.43905
      H1    -5.07271   12.93859   10.84771
       H    -1.83237   12.47252    9.04784
       O    -2.31667   13.35275    8.97533
      H1    -1.78630   13.76563    9.71021
       H    -3.93273   17.31959    8.47754
       O    -3.50085   18.01875    8.92835
      H1    -4.00328   18.82258    8.63444
       H    -8.53391   17.79847    6.31925
       O    -8.15774   17.37805    7.11999
      H1    -7.91299   18.13025    7.69923
       H     6.38836   17.37729    6.92024
       O     6.77039   17.14196    6.09661
      H1     6.01916   16.57489    5.73300
       H     3.87382   16.28878    5.06650
       O     3.90285   16.28688    6.02044
      H1     3.17899   16.88973    6.19946
       H     2.78292   14.70543   12.71633
       O     3.48434   14.08008   12.42311
      H1     4.12355   14.63236   11.86431
       H     9.63145   18.97386    9.73225
       O     8.83954   18.33844    9.72304
      H1     9.05271   17.87606   10.57932
       H     6.08288   17.51586    9.13667
       O     6.03721   18.29822    8.63426
      H1     6.91274   18.66551    8.83013
       H     2.11483   12.35215   10.99607
       O     1.18112   12.42566   10.87256
      H1     0.83300   11.58549   11.17666
       H     7.79121   12.71447    4.57784
       O     7.62231   13.68178    4.42376
      H1     6.63990   13.62482    4.35793
       H     1.50157   18.15429    9.68247
       O     1.64107   17.76720   10.54350
      H1     1.44048   16.80621   10.34939
       H    -1.95565   14.88626   12.80122
       O    -1.52036   14.37869   12.14702
      H1    -0.73845   14.92352   11.85998
       H    -0.98700   17.24117    8.66927
       O    -0.99205   16.24079    8.78177
      H1    -0.76087   15.91542    7.82564
       H     5.96004   11.59539    8.33468
       O     6.48682   12.42811    8.25423
      H1     5.85077   12.98905    7.82628
       H     0.83061   17.28619    6.40397
       O     1.44900   17.94015    6.09461
      H1     0.90521   18.47985    5.50932
       H     0.70093   18.59615    7.71754
       O     0.22108   18.86507    8.50699
      H1    -0.01849   19.77152    8.20633
       H     4.20433   14.98081    7.14403
       O     4.43058   14.12976    7.47472
      H1     3.70694   13.55129    7.21433
       H    -2.67080   17.65415    7.25636
       O    -2.33097   17.91071    6.39290
      H1    -2.84182   17.27178    5.92887
       H    -2.34802   12.36540    2.13657
       O    -2.50722   12.93831    1.40057
      H1    -1.69210   13.52474    1.51227
       H     4.83477   16.44492    2.96311
       O     4.02120   16.12312    3.34337
      H1     3.89834   15.26175    2.96041
       H     8.24665   17.68002    5.83182
       O     9.20690   17.92860    5.83544
      H1     9.16819   18.87332    5.79734
       H    -1.14571   19.45658   15.16719
       O    -1.65018   18.71046   14.90561
      H1    -2.30913   19.11096   14.31218
       H     0.81490   19.24895    3.53783
       O     0.14209   19.21032    4.27823
      H1    -0.37553   18.40500    4.01315
       H     4.78496   15.38175    8.77248
       O     5.21003   15.91329    9.45568
      H1     6.06877   15.51357    9.61909
       H     1.23490    9.69147    4.58201
       O     1.67490   10.17826    5.31235
      H1     1.15146   10.96968    5.35983
       H    -7.57292   18.11738   12.78542
       O    -7.30642   18.82309   12.14486
      H1    -6.46469   18.41249   11.83128
       H    -2.89915   11.71008    5.53050
       O    -2.00840   11.35022    5.38678
      H1    -2.23577   10.36990    5.51501
       H    -0.05191   14.71787    2.99639
       O    -0.05177   13.75601    2.86998
      H1     0.80897   13.60190    2.44147
       H    -0.94873   16.69790    2.47054
       O    -0.81229   16.55485    3.45712
      H1    -1.75183   16.61678    3.68328
       H     5.56640   12.77090    2.67662
       O     4.91257   13.17635    3.24657
      H1     4.67649   12.42851    3.83763
       H    -6.41244   17.54156    2.66014
       O    -6.84101   17.63718    3.56084
      H1    -7.64477   18.11648    3.31127

