180
frame 11 | Written by MDAnalysis XYZWriter (release 2.4.3)
       H   -11.18834   -3.63056   -3.27097
       O   -11.45321   -3.11526   -2.51280
      H1   -12.26055   -2.53655   -2.80126
       H   -14.95390   -6.90355    3.18653
       O   -15.26282   -6.00932    3.11793
      H1   -16.20515   -6.20875    3.06594
       H    -9.98598   -2.25053    0.20439
       O    -9.15511   -1.77521    0.46392
      H1    -8.55672   -2.49134    0.73408
       H    -8.91320    2.95573   -1.20763
       O    -9.33837    2.91584   -0.35300
      H1    -8.79081    2.29669    0.08207
       H   -13.49787    3.33364    3.17090
       O   -14.19260    4.01954    3.19325
      H1   -13.90523    4.70189    2.52298
       H   -13.23870    4.12621   -1.46105
       O   -13.31053    3.59575   -0.69801
      H1   -14.24107    3.66583   -0.37631
       H   -10.11771   -2.35958    7.05437
       O   -10.70436   -3.08153    7.32252
      H1   -10.95743   -2.62523    8.09656
       H   -11.08408    0.48164   -1.75380
       O   -11.74905    1.08378   -1.34626
      H1   -11.37065    1.93779   -1.61143
       H   -12.21797    5.32593    5.33184
       O   -12.98106    4.77043    5.51073
      H1   -13.38505    4.65935    4.59737
       H   -13.86265   -4.22817   -1.20380
       O   -14.73120   -3.75300   -1.14555
      H1   -14.84478   -3.72644   -0.16658
       H   -12.28848   -3.60487    1.71413
       O   -11.31896   -3.53426    1.55029
      H1   -11.03406   -4.23188    2.06152
       H   -15.17927   -4.93149    4.70395
       O   -15.34488   -4.47452    5.52617
      H1   -15.51954   -5.24670    6.12829
       H   -12.44492    1.76726    6.50272
       O   -11.74657    2.27320    6.00435
      H1   -12.23471    3.01634    5.70003
       H   -13.93092   -0.55012   -4.94990
       O   -13.88445   -0.56437   -5.89716
      H1   -13.09538   -1.12150   -6.04565
       H   -11.49006    0.36772    4.95944
       O   -11.71682   -0.43670    4.50192
      H1   -12.32900   -0.21338    3.83303
       H   -11.52364    0.45366    0.12661
       O   -11.42546    0.02852    0.98687
      H1   -10.53551   -0.31758    0.86326
       H    -9.97231    6.53863    3.25017
       O    -9.43989    5.76831    3.20793
      H1    -9.85126    5.41602    2.39135
       H   -19.25543   -4.33521   -0.09039
       O   -18.37460   -4.71323   -0.30191
      H1   -17.85621   -4.16654    0.29140
       H    -8.34924    3.85748    4.26803
       O    -8.84002    3.01561    4.29272
      H1    -8.39816    2.42334    4.88839
       H   -10.13281   -0.71468    3.38448
       O    -9.16299   -1.05555    3.17166
      H1    -9.20402   -1.45617    2.28537
       H   -15.72233    0.93584    0.58958
       O   -16.06141    0.18703    0.06406
      H1   -15.45335   -0.54036    0.25322
       H    -6.70372   -3.76677    1.59742
       O    -6.76465   -2.87959    1.26736
      H1    -6.00757   -2.84830    0.69798
       H    -8.62248   -1.33517   -3.39176
       O    -7.80775   -1.32593   -3.88032
      H1    -7.16669   -1.23197   -3.19024
       H   -14.65215   -4.27347    2.09609
       O   -14.03781   -3.74886    1.60345
      H1   -14.41958   -2.90632    1.59437
       H   -12.86311   -0.41648    6.06329
       O   -13.39293   -0.02694    6.78280
      H1   -13.51439   -0.77768    7.39179
       H    -5.84156   -0.13684   -1.44914
       O    -6.31990   -1.00233   -1.59308
      H1    -5.58426   -1.61095   -1.37855
       H   -12.95461   -0.63097    1.40722
       O   -13.89429   -0.77328    1.66202
      H1   -14.10401   -0.09517    2.35189
       H   -15.30078    3.38427    1.90411
       O   -15.52675    3.09462    1.03036
      H1   -16.31677    3.67498    0.82162
       H   -18.24640    2.98756    1.17918
       O   -18.23365    3.93260    0.98423
      H1   -18.96527    4.21338    1.53792
       H   -10.83098   -6.24031   -0.50108
       O   -10.09089   -6.66498   -0.92280
      H1    -9.27501   -6.34812   -0.49137
       H   -11.15574    2.07568    2.17974
       O   -11.13492    2.60876    2.99177
      H1   -10.15872    2.63088    3.20395
       H   -17.68833   -1.88603    0.62681
       O   -17.00638   -2.48303    0.92221
      H1   -17.17774   -2.65327    1.85693
       H   -17.67261    0.66297    0.53751
       O   -18.28536    1.11484    1.16844
      H1   -17.78216    0.93886    1.98588
       H   -15.05382    0.83799   -1.25911
       O   -14.88962    1.35352   -2.06258
      H1   -13.97730    1.73407   -1.77423
       H   -15.99408    6.35134    0.65914
       O   -15.65247    6.43981    1.58420
      H1   -14.74123    6.24000    1.40191
       H   -18.11055    2.27563    3.91167
       O   -17.24211    1.80361    3.85598
      H1   -17.35588    0.99395    4.38731
       H    -9.70347    5.53341    0.40491
       O   -10.58148    5.18586    0.56734
      H1   -10.32270    4.28137    0.38525
       H   -11.94726   -3.81090    6.17016
       O   -12.48594   -4.46375    5.85875
      H1   -13.38242   -4.14947    6.04208
       H   -14.90834    0.11176    4.36290
       O   -14.66842    0.86909    3.76831
      H1   -15.46455    1.38154    3.65649
       H   -15.36675   -6.77348   -1.06981
       O   -15.06575   -6.32171   -1.90266
      H1   -14.95781   -5.43434   -1.54018
       H   -11.62302   -6.43937    3.35023
       O   -10.94329   -5.75441    3.33705
      H1   -11.28773   -5.11323    3.98825
       H   -15.80221    2.96202   -2.89529
       O   -15.92434    3.89048   -3.11068
      H1   -16.87206    3.97434   -3.09647
       H   -15.38723    1.93758    8.15708
       O   -15.72119    1.07951    7.77172
      H1   -15.03667    0.87581    7.11771
       H   -14.37626   -0.59135   -2.72509
       O   -13.99399   -1.41704   -3.09838
      H1   -14.81941   -1.97126   -3.08883
       H   -12.11096   -4.61996   -1.45672
       O   -12.56137   -5.11121   -0.77364
      H1   -12.38190   -4.62944    0.05504
       H    -7.64762   -0.71270    4.36831
       O    -7.17127   -0.72852    5.22185
      H1    -6.88940    0.20275    5.27420
       H   -19.23276   -1.45690   -3.65546
       O   -19.00029   -1.00927   -2.85355
      H1   -18.76415   -1.73489   -2.29216
       H   -18.16352   -3.44782    4.79553
       O   -17.49322   -3.02259    4.27651
      H1   -16.70222   -3.34337    4.68822
       H    -6.70333    0.43449    1.76895
       O    -7.59221    0.74387    1.58019
      H1    -8.10568    0.03516    2.00874
       H    -9.49994   -6.62661    3.60515
       O    -8.60055   -7.00760    3.61866
      H1    -8.75016   -7.91038    3.95224
       H   -15.34906   -3.21980    7.26863
       O   -15.36116   -2.24329    7.46233
      H1   -15.67008   -1.88730    6.62970
       H   -12.68871    6.24488    1.71520
       O   -13.26734    5.52793    1.36198
      H1   -12.60188    5.02516    0.88395
       H   -16.38890   -3.72595   -3.93788
       O   -16.55833   -3.02636   -3.26337
      H1   -15.96882   -3.28387   -2.52700
       H    -9.48412   -0.11621    7.60625
       O    -9.09211   -0.92096    7.18900
      H1    -8.70698   -0.55804    6.40113
       H    -9.37714   -1.23759   -1.26832
       O    -9.77245   -1.02737   -2.13438
      H1   -10.26327   -1.85896   -2.28995
       H   -13.34374    4.75239   -4.20469
       O   -13.61278    4.93423   -3.29289
      H1   -14.50568    4.49111   -3.36193
       H   -16.59719    0.99599   -2.82623
       O   -17.46987    1.15622   -3.20806
      H1   -17.91010    0.26918   -3.06857
       H    -6.90137    2.61256    2.08552
       O    -6.40347    3.28644    2.59970
      H1    -5.84106    3.64046    1.82681
       H   -16.34986    3.52413    6.54744
       O   -17.13050    3.43747    6.01905
      H1   -16.85667    2.84125    5.34682
       H   -17.39232   -0.96172    5.39536
       O   -16.61454   -0.47761    5.53362
      H1   -16.85190    0.18233    6.25701

