180
frame 10 | Written by MDAnalysis XYZWriter (release 2.4.3)
       H   -13.77356  -11.85183    8.50996
       O   -14.00138  -12.13816    7.61833
      H1   -14.46595  -11.36293    7.30582
       H    -9.26129  -16.94229   -3.39104
       O    -9.21466  -16.84988   -4.39225
      H1    -8.42047  -17.33236   -4.62323
       H   -14.76146  -12.55040   -0.30355
       O   -14.78673  -13.04252   -1.14482
      H1   -15.69692  -12.84823   -1.49288
       H   -18.07084  -19.66268    5.50250
       O   -18.46482  -18.90140    5.95946
      H1   -18.34976  -19.14866    6.88855
       H    -6.31128  -16.62170    6.14465
       O    -6.41770  -17.41286    5.70191
      H1    -6.46345  -17.21427    4.72394
       H    -9.24697  -18.28329    2.67952
       O    -8.48769  -18.93020    2.62308
      H1    -8.50121  -19.32759    3.46667
       H    -8.88700  -11.89010    6.06370
       O    -9.66433  -12.10367    5.56066
      H1   -10.35023  -12.36977    6.19867
       H    -9.33673  -11.31079    9.43224
       O    -8.53784  -10.75429    9.59159
      H1    -7.98837  -11.16244    8.87309
       H   -17.33675  -15.84822    8.28777
       O   -18.09068  -16.40727    8.22034
      H1   -18.46103  -16.09818    7.34970
       H   -17.08752  -15.39057    3.92968
       O   -17.41546  -14.59012    3.50944
      H1   -16.74409  -13.89690    3.66899
       H   -10.84367  -12.22845    0.47231
       O   -11.13828  -12.07606    1.39802
      H1   -10.36577  -11.59505    1.73731
       H   -10.56531  -12.52988   -2.00735
       O   -10.27515  -12.08873   -1.13325
      H1   -10.70215  -11.25212   -1.05621
       H    -9.92172  -14.69619    6.77901
       O    -9.79409  -15.58234    7.12835
      H1   -10.34003  -15.74081    7.92699
       H   -16.72459  -18.95939    0.92683
       O   -15.79287  -18.86797    0.74648
      H1   -15.41025  -18.60573    1.66591
       H   -11.69482  -19.27409    1.05080
       O   -12.52925  -19.26611    1.52876
      H1   -12.36989  -19.89641    2.25621
       H   -15.40161  -18.26902    3.78598
       O   -14.79443  -18.48141    3.11596
      H1   -14.51966  -19.36164    3.15111
       H   -12.47953  -19.04083    6.82289
       O   -11.84115  -18.32507    6.90110
      H1   -11.80079  -17.80699    6.02900
       H   -15.28349  -13.13017    8.02604
       O   -15.91388  -13.76214    8.39966
      H1   -15.42070  -14.24878    9.12296
       H   -11.90029  -16.21790   11.42283
       O   -12.03922  -16.74797   12.18983
      H1   -11.81502  -16.19345   12.96996
       H   -12.78258   -9.95961    1.95745
       O   -12.56784   -9.12399    1.43249
      H1   -12.28721   -9.50430    0.60317
       H   -13.24301  -12.79287    1.78331
       O   -14.04195  -12.96806    1.29579
      H1   -13.98184  -13.88009    1.14627
       H   -11.43302  -17.14911    2.15643
       O   -10.50952  -17.10484    2.31768
      H1   -10.06933  -16.61343    1.56300
       H   -11.09162  -16.47421    4.08399
       O   -11.44954  -16.40893    4.94633
      H1   -10.72089  -16.05976    5.45021
       H    -6.95438  -17.69129    2.74733
       O    -6.13463  -17.21511    2.71518
      H1    -6.24989  -16.76217    1.81575
       H    -3.89476  -12.86024    1.61602
       O    -3.75663  -13.02285    2.54705
      H1    -4.52080  -13.54612    2.84992
       H   -12.11909  -10.64300    3.68592
       O   -12.95684  -10.94763    3.22811
      H1   -13.47952  -11.54581    3.80299
       H    -8.37511  -15.94275   10.46797
       O    -8.16578  -16.80549   10.17546
      H1    -8.58294  -16.98380    9.35085
       H   -13.08118  -17.28585    7.87526
       O   -13.79704  -16.97246    8.43513
      H1   -14.07123  -17.86811    8.81831
       H   -10.30580  -10.85974    4.64280
       O   -10.64231  -10.02421    4.32707
      H1   -10.04399   -9.71718    3.64298
       H   -18.08472  -14.10153    1.47003
       O   -18.00834  -13.77068    0.55318
      H1   -18.87398  -13.95661    0.17733
       H    -6.83657  -13.97123    2.69648
       O    -6.11427  -14.30280    3.16592
      H1    -6.10484  -15.24404    2.94736
       H    -8.76008  -19.21291    7.40697
       O    -8.10146  -18.49005    7.61602
      H1    -7.78105  -18.22604    6.74175
       H   -15.66549   -9.25746    2.40812
       O   -15.54323  -10.17108    2.00035
      H1   -14.57671  -10.19216    1.76280
       H   -16.93779  -15.86055    0.28480
       O   -17.20026  -16.65359   -0.17760
      H1   -16.61950  -17.35238    0.15757
       H   -10.70469  -14.36852   10.05966
       O   -10.61770  -13.44026   10.41403
      H1   -11.29178  -13.34234   11.12611
       H    -3.46420  -18.90785    0.38012
       O    -4.41018  -18.92878    0.48547
      H1    -4.60706  -18.40399    1.25017
       H    -8.70523  -12.41072   -2.08951
       O    -7.74817  -12.20699   -2.32193
      H1    -7.42025  -13.06785   -2.68326
       H   -15.60882  -11.43304    3.24762
       O   -15.51350  -11.99347    4.04979
      H1   -15.57831  -11.42854    4.84214
       H   -14.63426  -16.75994   -2.01065
       O   -15.00491  -17.17682   -2.80953
      H1   -15.18909  -18.10826   -2.48355
       H    -5.83945  -16.17644   -0.26487
       O    -6.41953  -15.72865    0.37464
      H1    -6.91769  -15.07880   -0.08974
       H   -15.94974  -18.71293    9.68730
       O   -15.05549  -18.65973   10.06823
      H1   -14.82396  -19.52631   10.33298
       H    -7.07004  -19.96819   10.72230
       O    -7.80341  -19.42590   11.13068
      H1    -7.90369  -18.55127   10.60555
       H   -14.74883  -16.01740    6.82969
       O   -15.51991  -15.75651    6.33028
      H1   -15.78322  -14.92865    6.74147
       H    -7.64201  -15.48001    7.47270
       O    -6.66723  -15.19662    7.49860
      H1    -6.36308  -15.63433    8.30495
       H    -7.74625  -12.63146    0.95937
       O    -8.17488  -13.16122    1.65309
      H1    -8.82736  -13.63866    1.13592
       H   -17.56790  -17.60882    4.87639
       O   -16.82846  -17.11011    4.43628
      H1   -16.20598  -16.94330    5.12655
       H    -8.84908  -16.87117   -0.27506
       O    -9.45586  -16.12085   -0.11680
      H1   -10.14650  -16.21629   -0.75108
       H   -12.72114  -13.33775    6.71562
       O   -11.93893  -13.80516    6.42204
      H1   -12.28258  -14.31846    5.68894
       H   -16.02942  -10.17992    6.98927
       O   -15.38182  -10.40040    6.29255
      H1   -14.85844   -9.60855    6.03047
       H    -7.35216  -19.10485   -0.55521
       O    -7.77940  -18.26199   -0.87907
      H1    -7.08848  -17.80554   -1.42044
       H   -14.32018  -13.79127    3.70905
       O   -13.98839  -14.52224    4.20194
      H1   -14.73553  -14.64536    4.81792
       H    -4.44059  -12.09624    5.75821
       O    -5.35204  -12.21918    5.46932
      H1    -5.28066  -12.29143    4.53695
       H   -10.23074  -16.37879   10.40737
       O   -10.91581  -16.08384    9.79795
      H1   -11.52761  -16.81707    9.57521
       H    -7.25754  -13.15437    7.57654
       O    -7.34785  -12.21597    7.35510
      H1    -6.74341  -12.11735    6.62416
       H    -3.92793  -18.85365    6.38722
       O    -4.04878  -19.55442    7.00736
      H1    -3.25369  -20.08555    6.92930
       H   -12.01575  -15.76707   -1.63246
       O   -11.37855  -15.91112   -2.32483
      H1   -11.90156  -16.56378   -2.83730
       H    -9.30352   -7.98748    6.67218
       O    -9.48580   -7.90712    5.72815
      H1   -10.05125   -8.70483    5.47742
       H   -13.75467  -16.94833    2.36974
       O   -13.36640  -16.09167    2.09130
      H1   -13.47871  -15.76589    2.99912
       H   -11.15851  -13.18898   -3.98173
       O   -10.42639  -13.58299   -3.49398
      H1   -10.72619  -14.31273   -2.95433
       H   -14.02476  -14.53277   -0.59222
       O   -13.55320  -15.31453   -0.44470
      H1   -13.42879  -15.46527    0.48307

