180
frame 3 | Written by MDAnalysis XYZWriter (release 2.4.3)
       H    -0.96369   14.73283   -2.05693
       O    -1.55005   14.49270   -1.32840
      H1    -1.60671   15.34944   -0.90045
       H    -4.73276   10.24321   -5.34641
       O    -4.71989    9.26184   -5.42173
      H1    -5.32623    9.10583   -6.15049
       H    -3.32219   12.39539   -7.97559
       O    -2.74027   11.82465   -8.39500
      H1    -1.90670   12.18758   -8.01377
       H    -5.14048   16.69408   -5.07015
       O    -4.27576   16.43072   -4.65288
      H1    -4.58152   15.91648   -3.84201
       H    -5.61150    7.56961   -1.99046
       O    -6.42535    7.62443   -1.42948
      H1    -5.91634    8.03119   -0.63751
       H    -0.98325   12.14504   -1.16332
       O    -0.23754   11.57326   -1.43441
      H1    -0.26818   11.55906   -2.36567
       H     0.45623    8.37382   -7.98914
       O     0.13360    8.13193   -7.08672
      H1     0.04698    8.98691   -6.67926
       H    -6.67543   12.59515   -7.27880
       O    -6.99489   13.47969   -7.35551
      H1    -6.82247   13.73788   -6.42498
       H    -7.23930   17.68261   -6.14801
       O    -6.91394   17.28863   -5.28607
      H1    -7.38500   16.39714   -5.38883
       H    -1.15594    5.91658   -2.20934
       O    -0.31496    6.23584   -2.65832
      H1     0.25536    5.76694   -2.04118
       H     0.82560   17.65057   -1.47118
       O     1.10207   18.11412   -0.65368
      H1     0.33233   18.73990   -0.45749
       H     1.03697   10.84444    1.39846
       O     1.49859   10.34842    2.13882
      H1     1.18671    9.43755    2.07555
       H     3.87602   12.47023   -2.44363
       O     3.45869   13.21716   -2.88310
      H1     2.86317   12.69764   -3.47991
       H    -3.05690   13.95802   -0.98053
       O    -3.91749   13.58134   -0.65983
      H1    -3.72167   12.90914    0.06394
       H    -2.86430   16.87918    0.03414
       O    -1.89026   16.99967   -0.13562
      H1    -1.84462   17.25596   -1.09041
       H    -7.86581   16.36996   -2.34751
       O    -6.96388   16.71190   -2.10443
      H1    -6.74218   17.07856   -3.00366
       H    -3.58070   17.90856   -4.75518
       O    -3.41410   18.92663   -4.78950
      H1    -4.16995   19.24950   -4.21840
       H    -6.02749   11.82491   -9.34599
       O    -5.61646   12.32856  -10.04025
      H1    -6.15238   12.08881  -10.80494
       H    -1.99224   15.99995   -5.60532
       O    -1.12821   16.38755   -5.29990
      H1    -1.07386   17.09364   -5.96112
       H    -5.64547    8.39238    1.79289
       O    -6.18535    8.70408    1.07331
      H1    -6.79526    7.96928    0.95875
       H    -9.08206   11.21455   -1.83448
       O    -9.73591   11.00632   -1.07735
      H1    -9.51539   10.05723   -1.04052
       H    -6.09510   14.95421   -2.47346
       O    -5.45499   14.43547   -2.95555
      H1    -5.08432   13.88470   -2.25291
       H     1.24739   14.73676   -6.91854
       O     0.50092   15.33136   -7.24906
      H1     0.00462   15.53591   -6.44798
       H    -0.45964    9.15703   -0.79806
       O    -1.25124    8.55440   -0.74147
      H1    -1.17866    8.05392   -1.55132
       H     2.24587   13.52478   -1.72246
       O     1.58222   13.94304   -1.15822
      H1     1.22473   13.26437   -0.56921
       H    -6.27155   10.52817    1.13246
       O    -6.25236   11.47538    0.85073
      H1    -7.25301   11.58329    0.98716
       H    -1.73297    5.41900    0.47943
       O    -2.33211    5.29436   -0.31018
      H1    -2.89476    6.05664   -0.49083
       H     0.51276   13.92103   -2.57750
       O     0.15317   14.12339   -3.47418
      H1    -0.51022   13.37585   -3.60093
       H     0.02655   12.58086   -8.21471
       O    -0.45430   12.63759   -7.35044
      H1    -0.54481   13.66337   -7.43563
       H     2.58317   14.55045   -4.91311
       O     2.04919   13.75826   -5.24089
      H1     1.36130   13.83298   -4.53192
       H    -2.37013   13.12140   -4.45940
       O    -1.89380   12.53423   -3.85620
      H1    -2.59348   12.14818   -3.37187
       H    -3.77522   16.60822   -8.18209
       O    -3.44905   15.64620   -8.29531
      H1    -4.24123   15.26166   -8.72655
       H    -3.09271   14.40324   -6.81064
       O    -2.97996   14.36437   -5.83920
      H1    -3.59048   15.06582   -5.59123
       H    -2.38740   15.27496    3.89959
       O    -2.04966   15.30206    3.02270
      H1    -2.78374   15.74598    2.49004
       H    -8.59740   11.60653   -3.73866
       O    -8.31262   12.24103   -3.08136
      H1    -7.51646   11.99677   -2.61672
       H    -0.78256    8.20334    0.91069
       O    -0.25962    8.03505    1.71250
      H1    -0.62794    7.19503    2.06320
       H    -5.36323   14.99404  -10.62621
       O    -5.68215   15.04689   -9.69416
      H1    -5.81430   14.05535   -9.43180
       H    -8.24573   14.12163   -5.15301
       O    -7.38514   14.58379   -5.00237
      H1    -7.08115   14.12561   -4.19565
       H    -4.60461    8.24210   -4.03102
       O    -4.31344    7.77510   -3.23140
      H1    -4.32856    6.81944   -3.48788
       H    -1.01821   18.49136   -2.99798
       O    -1.03218   17.57951   -2.62524
      H1    -1.11354   17.03447   -3.41487
       H    -3.13160    9.63218   -2.65974
       O    -3.01942   10.52694   -2.37301
      H1    -2.34856   10.40180   -1.70205
       H    -3.42061    9.73652   -8.64508
       O    -4.03806    9.03200   -8.59579
      H1    -4.41831    8.96800   -9.51556
       H    -5.72030   11.34557   -1.08676
       O    -5.65452   11.23245   -2.03135
      H1    -4.65979   10.98863   -2.08578
       H    -8.89928    9.48450   -4.92028
       O    -9.49668    9.97820   -4.36025
      H1    -9.55024    9.40206   -3.56103
       H    -5.46757   11.86293   -3.93561
       O    -5.21293   11.89137   -4.86272
      H1    -4.42327   12.44464   -4.80738
       H    -3.90989   12.50768  -11.05384
       O    -3.00619   12.06744  -11.00367
      H1    -2.96011   11.96646  -10.03126
       H    -1.56327    7.47184   -7.40402
       O    -2.30671    6.93209   -7.72092
      H1    -2.87529    7.64939   -8.09652
       H    -2.41933   12.35357    1.85699
       O    -2.05136   12.46223    0.95015
      H1    -1.61829   13.33222    0.95641
       H     1.26777   16.04530   -3.54043
       O     1.97090   16.62779   -3.21483
      H1     1.82613   17.42823   -3.77322
       H    -4.90913   16.55718    1.05919
       O    -4.11946   16.06346    0.90211
      H1    -4.36259   15.20758    0.60804
       H     0.82361    7.53819   -2.74359
       O     1.31867    8.34978   -2.79959
      H1     2.09321    8.14287   -2.21329
       H    -9.36658   14.02440   -0.45942
       O    -8.41200   13.87377   -0.67428
      H1    -8.56456   13.24140   -1.40781
       H    -3.58478   11.74439    4.05810
       O    -2.87628   11.32039    3.53980
      H1    -2.45138   10.68043    4.13272
       H    -5.60265   10.25959   -8.05085
       O    -6.36803   10.83518   -7.90736
      H1    -6.98573   10.24989   -7.50263
       H     0.66175   14.91787    1.83656
       O     0.61789   13.91292    1.90450
      H1     1.55968   13.71676    1.91764
       H     0.86477   11.14979   -4.30553
       O     1.54612   11.22937   -3.61516
      H1     1.82972   10.27596   -3.52307
       H     2.40171   12.22142   -5.68622
       O     2.75531   11.58649   -6.35370
      H1     2.41837   10.81027   -5.98633
       H     2.78511    8.36277   -6.75183
       O     2.72259    8.83731   -5.89856
      H1     2.06547    8.23088   -5.48230
       H     0.67861   16.87555    0.94360
       O     0.37153   16.51020    1.76289
      H1    -0.58525   16.39255    1.60302
       H    -0.45362   11.33001   -6.10423
       O    -0.29674   10.53136   -5.52826
      H1    -1.05375   10.51383   -4.95466

