180
frame 2 | Written by MDAnalysis XYZWriter (release 2.4.3)
       H    -2.42688  -10.54612  -13.95387
       O    -2.18686   -9.69827  -13.48548
      H1    -2.39138   -9.98226  -12.54966
       H    13.27248  -16.36245  -18.92726
       O    13.92027  -16.73797  -19.52152
      H1    13.39588  -17.41370  -20.01855
       H    -3.92690  -12.78400  -15.85205
       O    -4.69427  -13.22758  -16.25870
      H1    -5.22256  -12.48727  -16.57529
       H     7.46086  -17.39919  -10.77263
       O     8.37146  -17.70934  -10.79570
      H1     8.97501  -17.08754  -10.27016
       H    -2.34904  -15.52083   -9.83598
       O    -1.70609  -14.86484  -10.19690
      H1    -2.28330  -14.08532  -10.13685
       H    -2.15333  -11.89501  -16.12711
       O    -2.48223  -11.72280  -15.25668
      H1    -2.18799  -12.44771  -14.66322
       H     6.56425  -19.60615  -13.36825
       O     5.64404  -19.46894  -13.25480
      H1     5.38857  -18.62226  -13.71277
       H    -2.25240  -11.68453  -18.52351
       O    -1.68269  -11.76569  -17.77979
      H1    -1.13721  -12.53241  -18.05683
       H     2.48245  -15.80751   -9.88967
       O     1.71945  -15.90789   -9.31909
      H1     1.94601  -15.53787   -8.45100
       H     5.00455  -17.85273  -16.28419
       O     4.77799  -17.96480  -15.33179
      H1     4.66504  -17.07493  -15.02949
       H     5.70292  -17.39619   -9.48253
       O     5.60031  -17.58433  -10.38318
      H1     4.99750  -16.86351  -10.60413
       H    -2.28137  -15.99525  -15.24453
       O    -1.31626  -16.18524  -15.46913
      H1    -0.94219  -16.09536  -14.59261
       H     3.87181  -14.88016  -14.47485
       O     4.54929  -15.47378  -14.07839
      H1     5.32813  -14.86211  -14.07107
       H     2.35060  -13.45988  -12.22101
       O     3.23897  -13.16776  -12.42912
      H1     3.17023  -12.89858  -13.35586
       H     0.06750  -17.73685  -17.43960
       O    -0.25514  -17.83651  -18.34550
      H1    -0.99631  -18.47060  -18.23595
       H     2.10208  -12.90515  -18.32890
       O     2.97914  -12.77849  -17.95513
      H1     3.51276  -13.43083  -18.40186
       H     0.37731  -14.41987  -17.09562
       O     0.68553  -14.65771  -16.17649
      H1    -0.12959  -15.06536  -15.90316
       H    11.43684  -13.46364  -15.23924
       O    12.20130  -13.79598  -15.71817
      H1    12.67356  -14.14911  -14.97672
       H     8.31934  -17.41769  -13.77553
       O     7.63632  -16.79227  -13.84160
      H1     7.01458  -17.29163  -14.32840
       H     4.27987  -15.02352  -11.78579
       O     3.91978  -15.73538  -11.26638
      H1     3.56673  -16.24960  -12.01571
       H     3.24785   -7.29571  -18.62628
       O     4.08584   -7.68196  -18.38206
      H1     4.71481   -7.20686  -18.92147
       H    -6.04851  -18.16149  -16.05138
       O    -5.10986  -18.03017  -16.14931
      H1    -4.80164  -18.04490  -15.21868
       H     1.22645  -16.11205  -14.18545
       O     0.65761  -15.88669  -13.42111
      H1     0.76480  -14.90930  -13.30710
       H     6.62155  -14.39447  -12.09075
       O     7.01472  -14.17427  -12.99530
      H1     7.34473  -15.01720  -13.25840
       H     7.99764  -19.89963  -17.90878
       O     8.18649  -19.46132  -17.08857
      H1     9.01984  -18.96807  -17.27370
       H     8.90478   -9.29359  -16.81039
       O     9.03206   -9.82080  -17.66691
      H1     8.15874  -10.22898  -17.65384
       H    -4.10701  -15.43994  -13.34051
       O    -3.39860  -15.83880  -13.83643
      H1    -3.40520  -16.68026  -13.41730
       H    -2.44353  -14.37438  -13.12373
       O    -2.57169  -13.41645  -12.94219
      H1    -1.70016  -13.33220  -12.52152
       H    -0.22635  -17.95052   -9.17191
       O    -0.93483  -17.57430   -8.53817
      H1    -0.60926  -16.68415   -8.37559
       H     3.03826  -18.44540  -17.93479
       O     3.25470  -17.81878  -18.63041
      H1     3.49130  -17.09291  -18.09264
       H    -1.13170   -9.65945  -16.72034
       O    -1.56710   -8.77538  -16.84730
      H1    -0.77914   -8.22406  -16.57716
       H     1.52973  -18.92594  -15.96854
       O     1.57376  -17.98656  -15.79730
      H1     0.61120  -17.85604  -15.55017
       H    -4.54042  -14.73298  -17.14060
       O    -4.34261  -15.67639  -17.39322
      H1    -4.61035  -16.19817  -16.59209
       H    10.48308  -12.15450  -15.64595
       O     9.80503  -12.68152  -15.19450
      H1     9.24207  -12.02943  -14.80911
       H     2.23768  -18.49390  -11.60022
       O     3.12738  -18.69334  -11.88540
      H1     3.69159  -18.74161  -11.13503
       H     6.55590  -10.20815  -18.86771
       O     6.49470  -10.82861  -18.12577
      H1     5.88062  -10.46025  -17.48041
       H     8.66393  -14.07464  -15.45867
       O     8.03226  -14.77880  -15.72167
      H1     7.97530  -15.26780  -14.87606
       H     0.54010  -14.24265  -19.09645
       O     0.49724  -13.30288  -18.72618
      H1     0.35155  -12.83093  -19.54755
       H     0.21167  -19.03250  -11.48422
       O     0.42500  -18.33896  -10.88939
      H1     0.15038  -17.54500  -11.35164
       H     6.71349  -13.82084  -15.97398
       O     5.82482  -13.38456  -16.03452
      H1     5.98054  -12.45058  -15.73117
       H     2.11548  -13.63380  -15.51245
       O     2.94176  -13.31034  -15.08438
      H1     3.62421  -13.51230  -15.72416
       H     7.01454  -10.73977  -13.74343
       O     7.32131  -11.48717  -14.27842
      H1     7.18025  -12.14187  -13.52962
       H     8.06892  -16.05374  -19.19377
       O     8.45816  -15.46093  -18.51941
      H1     8.00540  -15.68340  -17.67639
       H    10.99457  -17.08886  -17.54543
       O    10.28144  -17.60372  -18.00281
      H1     9.62518  -16.97501  -18.30600
       H     1.85473   -8.47455  -15.97977
       O     2.32034   -9.14692  -15.45831
      H1     1.69635   -9.89006  -15.40515
       H    12.00826  -15.49315  -16.35118
       O    12.30176  -16.16951  -16.97103
      H1    12.64644  -16.90960  -16.42068
       H     5.65862  -17.92455  -18.76044
       O     6.18671  -17.34092  -18.21803
      H1     6.81164  -17.99515  -17.77278
       H     0.44297  -12.36379  -12.26461
       O     0.33533  -13.33495  -12.15007
      H1     0.09380  -13.36977  -11.20546
       H    -1.54677  -17.85842  -15.57979
       O    -1.59767  -18.82734  -15.66085
      H1    -1.33657  -19.12612  -14.73317
       H    -0.93826  -16.01419  -18.28541
       O    -1.56597  -15.25573  -18.36624
      H1    -2.47036  -15.56447  -18.04934
       H    -6.99993  -17.55929  -19.76967
       O    -6.37093  -16.93096  -19.46264
      H1    -6.70113  -16.78730  -18.57826
       H     6.45337  -13.10184  -10.83916
       O     5.88213  -13.84145  -10.57647
      H1     5.98322  -13.81442   -9.61541
       H    -0.32818  -10.36589  -12.97886
       O     0.56031  -10.76051  -12.89020
      H1     0.82089  -10.36957  -12.05449
       H     4.09879   -7.33019  -14.41813
       O     4.01978   -7.90229  -13.59250
      H1     3.36538   -8.49419  -13.97397
       H     3.28304  -10.91629  -18.95370
       O     3.02450  -10.02715  -19.25916
      H1     3.50565   -9.42430  -18.66853
       H    -4.07963  -17.78227  -19.02855
       O    -3.48223  -18.19388  -19.66683
      H1    -2.98244  -18.80815  -19.10065
       H     5.20243  -14.40217  -17.41748
       O     4.83216  -14.86249  -18.15421
      H1     5.32379  -15.72517  -18.03187
       H     3.71144  -11.43669  -16.43822
       O     4.36582  -10.75270  -16.16564
      H1     3.77460  -10.09160  -15.86530
       H     3.93803  -11.68290  -12.05259
       O     4.32881  -10.81176  -11.80873
      H1     5.09208  -10.68875  -12.32051
       H    -3.20368  -19.60895  -12.98346
       O    -3.17673  -18.62623  -12.98259
      H1    -2.26433  -18.44410  -12.75317

