180
frame 4 | Written by MDAnalysis XYZWriter (release 2.4.3)
       H     3.60054  -11.63919   17.50865
       O     3.96972  -10.81607   17.81390
      H1     3.41113  -10.67213   18.54981
       H    11.90750  -15.92912   16.03557
       O    11.69209  -16.03229   17.00874
      H1    10.97228  -15.43180   17.11226
       H     9.10484  -14.52756   16.21258
       O     9.09792  -14.87698   17.13545
      H1     9.12254  -14.08167   17.73622
       H     4.38178  -10.67574   12.05741
       O     3.73526   -9.97960   11.91257
      H1     2.90238  -10.41065   12.06652
       H     2.91184  -17.38824   15.96696
       O     2.16352  -17.97686   15.94918
      H1     2.29918  -18.14485   14.96232
       H     7.86751  -18.09795   13.16586
       O     7.72857  -17.82969   14.11536
      H1     6.91823  -18.28024   14.37846
       H    12.77685  -13.11062   18.79087
       O    11.97058  -12.84081   19.26213
      H1    12.31208  -12.74298   20.15347
       H     6.52298   -7.77425   18.51096
       O     6.04929   -8.61768   18.59676
      H1     5.76336   -8.71929   17.67949
       H    15.66696  -17.75998   14.17765
       O    15.08031  -18.37787   14.64997
      H1    14.23289  -18.04862   14.29095
       H     2.68383  -17.64469   13.08017
       O     2.67855  -18.58146   13.37195
      H1     1.97213  -18.88787   12.77470
       H    15.25033  -13.07870   12.96849
       O    15.65652  -13.79729   12.41293
      H1    16.02272  -13.25721   11.65869
       H    15.62933  -10.06594   18.41680
       O    15.53588  -10.31066   17.51138
      H1    16.37717  -10.18811   17.09578
       H    16.69431  -12.78089   17.48400
       O    16.33003  -13.11652   18.32295
      H1    16.72118  -12.38885   18.96051
       H    13.94206  -11.77627   12.90480
       O    14.19373  -12.04917   13.75783
      H1    13.53917  -12.68948   14.00213
       H     5.55495  -11.93611   13.29068
       O     5.64819  -11.74158   12.32739
      H1     5.33314  -12.60618   11.96094
       H     4.57446  -19.05558   12.55413
       O     5.49048  -19.05118   12.09091
      H1     5.36080  -19.75855   11.46089
       H    15.51096  -15.84530   15.91529
       O    15.20331  -16.39166   16.64390
      H1    14.79618  -17.12829   16.22483
       H     6.27168   -6.56223   16.71416
       O     7.03014   -7.10334   16.54784
      H1     6.66750   -7.99393   16.61728
       H    10.52351  -15.79692   11.54757
       O    11.06732  -15.45284   12.37463
      H1    11.74128  -14.88356   11.94339
       H    11.35346  -13.94991   14.59193
       O    12.21476  -13.49399   14.57597
      H1    12.62601  -13.71386   15.40890
       H    10.00169   -9.48144   18.77334
       O     9.49060   -9.34721   19.57946
      H1     9.29302  -10.20665   19.84268
       H     8.91125   -9.99623   11.32691
       O     8.39396   -9.14817   11.62894
      H1     7.49204   -9.35113   11.28913
       H     9.08622  -13.50548   14.01641
       O     9.24203  -14.38867   14.35689
      H1     9.71317  -14.81309   13.63506
       H     5.01193  -17.79318   16.09956
       O     5.45759  -18.59645   15.76243
      H1     5.85876  -18.90789   16.57468
       H     9.95866  -10.27427   15.89668
       O     9.17663   -9.96373   15.42427
      H1     8.51862  -10.35702   16.06906
       H     3.71756  -13.33343   18.42377
       O     2.96967  -13.39982   17.80639
      H1     2.13708  -13.31814   18.32330
       H     5.78628  -19.25861   18.79460
       O     5.81300  -18.29675   18.53349
      H1     4.97169  -18.19178   18.13943
       H     2.64917  -12.07045   14.19957
       O     2.90229  -11.81240   15.09179
      H1     2.20061  -12.25880   15.59750
       H    13.31806  -13.79240   10.68351
       O    13.54120  -14.69674   11.02707
      H1    14.20643  -14.51412   11.69457
       H     4.56965   -8.93580   15.35776
       O     5.13631   -9.42206   15.96676
      H1     4.44484   -9.78073   16.60094
       H     8.88188  -18.90568   10.88102
       O     8.48567  -18.10614   11.23586
      H1     7.75073  -18.04728   10.59629
       H     2.09063  -16.38592   19.34441
       O     1.29895  -15.91924   18.95973
      H1     1.44723  -16.10296   18.02064
       H     5.02443  -14.29341   10.72542
       O     4.37212  -13.84969   11.25006
      H1     4.02067  -13.18726   10.62433
       H     7.99534  -15.05887   10.81919
       O     7.09219  -14.73297   10.72261
      H1     6.91535  -14.50730   11.66455
       H     5.64014  -13.77331   19.77424
       O     5.52518  -13.21983   18.99429
      H1     5.58176  -12.30606   19.33503
       H    16.64404  -14.52431   13.93944
       O    16.99193  -15.21438   14.55841
      H1    17.50057  -14.76726   15.26521
       H    15.56520  -11.00757   13.80514
       O    16.16140  -10.32357   14.11681
      H1    16.50736   -9.97319   13.25343
       H    12.46457   -8.75263   11.58381
       O    12.79030   -9.56105   12.04325
      H1    13.51740   -9.28462   12.63711
       H    10.35104  -18.54226   15.70723
       O     9.67183  -19.19592   15.47923
      H1     9.03791  -18.56341   15.03632
       H     8.80464  -11.15630   13.74075
       O     8.45927  -11.83013   13.12118
      H1     7.55228  -11.49741   13.07850
       H     9.50800   -7.09376   13.77136
       O     8.87893   -6.75818   13.09024
      H1     8.85318   -7.54268   12.51568
       H    12.31973  -19.22450   10.57833
       O    11.57837  -18.63360   10.35780
      H1    11.31623  -18.33205   11.21350
       H     6.89006  -12.09475   17.23549
       O     7.56517  -11.44937   17.22071
      H1     8.19869  -11.80182   17.88445
       H    12.46446  -17.42457   18.10172
       O    12.95176  -18.15643   18.48334
      H1    12.53569  -18.05176   19.41095
       H    12.24620   -7.44556   16.88858
       O    12.56813   -8.39036   17.03007
      H1    12.94176   -8.49686   16.13764
       H     8.95260  -11.66016   11.38902
       O     9.51118  -11.47929   10.57885
      H1     8.92041  -11.81190    9.92319
       H    13.71244  -11.80742    9.96974
       O    13.66840  -11.76622   10.92648
      H1    13.23088  -10.82712   11.05684
       H     5.05947  -15.58073   16.61486
       O     4.30032  -16.13170   16.72623
      H1     3.68021  -15.50134   17.12347
       H    14.59549   -9.26396   14.86421
       O    13.99572   -8.51819   14.77082
      H1    14.59585   -7.87235   14.39639
       H    11.68041   -9.76075   17.55376
       O    11.10390  -10.50235   17.79921
      H1    11.69343  -11.09894   18.23369
       H     5.98555  -17.78711   10.95307
       O     6.27235  -17.38856   10.05501
      H1     6.48001  -16.46742   10.47002
       H    11.37755   -7.99430   14.72297
       O    10.68491   -7.38854   15.04938
      H1     9.90420   -8.00017   15.27705
       H     9.37369  -16.71021   10.08666
       O     9.56469  -15.78323    9.87988
      H1     9.39828  -15.77006    8.92179
       H     4.61840  -15.70600   13.15420
       O     3.66283  -15.90535   13.06311
      H1     3.47284  -15.25899   12.39373
       H     4.60060  -11.93978   15.25285
       O     5.54232  -12.05084   15.13477
      H1     5.89414  -11.24942   15.51788
       H    13.23388  -14.56639   17.35974
       O    13.47861  -13.72170   16.87589
      H1    14.41271  -13.50044   17.15547
       H     7.19993  -14.76433   16.49074
       O     6.42576  -14.61720   15.94334
      H1     6.26311  -13.68409   15.93621
       H     8.16406  -16.47686   17.61719
       O     8.18208  -17.03521   18.45559
      H1     7.37374  -17.52138   18.38348
       H     6.29618  -15.18549   14.21743
       O     6.42363  -15.59318   13.39348
      H1     6.92140  -16.40364   13.60908
       H    11.71799  -16.96600   13.76703
       O    12.15020  -17.54276   14.42915
      H1    12.14684  -18.46076   14.06494

