180
frame 10 | Written by MDAnalysis XYZWriter (release 2.4.3)
       H     5.69888    5.33958   19.37293
       O     4.97453    5.35092   18.68902
      H1     4.87409    6.32474   18.62872
       H    -0.22455    3.09275   13.67365
       O    -1.04224    3.23934   14.20713
      H1    -1.24242    4.15276   13.85245
       H     6.37155    2.81174   17.47885
       O     6.62904    3.69362   17.34690
      H1     5.83163    4.26065   17.76578
       H     7.42270   10.46547   12.56894
       O     7.22807    9.49202   12.60362
      H1     8.09221    9.02281   12.84807
       H     8.69542   12.31155   19.10398
       O     7.87556   11.77023   18.92862
      H1     7.45322   11.97110   19.74137
       H     3.33080    8.62985   14.49130
       O     2.37379    8.48846   14.53901
      H1     2.23466    7.51895   14.27391
       H    10.37404   10.06063   10.66934
       O     9.76181    9.60069   11.30614
      H1     8.97926    9.63479   10.69849
       H    -0.24311    3.20491   17.44320
       O    -0.56675    4.06233   17.01199
      H1    -0.66333    3.72289   16.05684
       H     9.25142    5.44793   11.63114
       O     9.91308    4.94624   11.14948
      H1     9.56194    4.14003   10.73976
       H     8.61968   10.49830   16.09461
       O     8.26321   11.42015   16.15932
      H1     7.84681   11.21279   17.03262
       H     2.63515   10.38052   13.64512
       O     2.92025   11.32383   13.53388
      H1     2.39362   11.67814   14.27778
       H     4.30578   12.97832   17.06196
       O     5.07815   12.39728   17.21882
      H1     5.36614   12.33169   16.34258
       H     6.22723    5.70601    9.61881
       O     6.66546    5.22039    8.89413
      H1     5.93252    4.95615    8.38392
       H     4.13710   11.38416   11.54718
       O     4.83786   11.18878   10.89721
      H1     4.52599   10.25996   10.70007
       H     3.32932    8.23135    9.84170
       O     3.66680    8.68187   10.58724
      H1     3.65285    7.94639   11.22534
       H     2.00243    3.71501    9.69522
       O     2.90160    3.26127    9.78466
      H1     3.15485    3.65693   10.68618
       H    11.16749    6.48854   13.85155
       O    10.42963    6.99766   14.29344
      H1    10.69815    7.94165   14.11218
       H     9.40183   10.55615   19.32528
       O    10.21805   10.16838   18.89044
      H1    10.53093   10.94032   18.43543
       H     5.98406    6.38796   11.91246
       O     5.27487    6.38772   11.24638
      H1     4.70820    5.64568   11.50560
       H     2.99482    4.63646   12.77486
       O     3.62679    4.29077   12.10653
      H1     4.24459    3.74779   12.55049
       H    11.80885    8.36071   17.10926
       O    12.09958    8.79445   16.33219
      H1    11.32716    8.93598   15.76694
       H     7.13380    0.42175   13.04253
       O     6.51680    0.74213   13.73125
      H1     6.35282    1.67432   13.44688
       H     0.65002    0.06016   16.89143
       O     1.54819   -0.01670   17.29555
      H1     1.93717    0.83888   16.99820
       H    10.71523    9.66488   12.92520
       O    11.09385    9.53597   13.78688
      H1    11.76964   10.23238   13.91203
       H    -0.84682    8.30678   15.68995
       O    -0.27591    9.09490   15.82101
      H1     0.13790    9.04503   14.90940
       H     8.85152    7.29227   11.26916
       O     8.46750    6.89442   12.10522
      H1     9.07555    7.23685   12.78626
       H     2.08079   12.75121   16.62494
       O     1.70602   12.04082   16.09041
      H1     1.48980   11.36338   16.76392
       H     4.76024    6.43281   15.99194
       O     4.58551    5.55977   15.62114
      H1     4.58468    5.03120   16.40471
       H    -2.27436    8.59739   12.28272
       O    -1.44594    8.61312   12.79953
      H1    -0.84412    8.27092   12.17069
       H    11.58067    3.91983   13.55664
       O    11.78150    4.77735   13.17938
      H1    11.11894    4.77567   12.44639
       H     7.03205    8.83535   16.08245
       O     6.99310    8.54461   17.06719
      H1     7.83097    8.08416   17.18908
       H     0.74732    5.17634   18.18961
       O     1.64027    5.17304   18.56050
      H1     1.56320    5.76198   19.33615
       H     2.18583    6.87933   17.66876
       O     2.52124    7.83433   17.67578
      H1     2.64647    8.03227   16.74571
       H     6.09573    0.95405   17.65619
       O     5.46403    1.46778   18.22608
      H1     5.98431    1.74852   19.01023
       H     0.47801    1.14240   18.96913
       O    -0.15860    1.82926   19.11518
      H1    -0.96133    1.31580   19.07220
       H     4.97657   14.85254   18.68087
       O     5.38137   14.07883   19.08514
      H1     5.36350   13.42333   18.32689
       H     3.91755    2.32373   17.93903
       O     3.07398    2.64893   17.65988
      H1     3.03550    3.37749   18.32069
       H     4.61373   10.31535   13.93970
       O     4.84293    9.39840   14.06938
      H1     5.61301    9.24492   13.48205
       H     4.84669    0.11470   14.58156
       O     3.97059   -0.24678   14.50486
      H1     4.09358   -1.17546   14.81213
       H     9.76068    5.53183   15.50409
       O     9.07811    4.87895   15.59940
      H1     8.67010    5.27069   16.37014
       H     1.85672    2.66821   13.50323
       O     1.18555    2.54189   12.76172
      H1     1.41295    3.30784   12.24217
       H     9.69086    3.61350   19.08789
       O     9.34126    2.78817   18.77167
      H1     8.61914    3.02792   18.13361
       H     0.25596    8.60405   19.00429
       O    -0.51904    8.09306   18.66451
      H1    -0.23069    8.09881   17.73492
       H    -2.55232    6.65245   16.82049
       O    -2.34196    7.35352   16.19872
      H1    -2.72071    8.20285   16.53458
       H    11.20250    3.08781   15.62990
       O    11.35656    2.42648   14.96395
      H1    12.29119    2.30194   14.94421
       H     7.42812    0.49372   15.43289
       O     7.84380    0.10117   16.19253
      H1     7.47832   -0.80597   16.18376
       H     4.35936   12.32623   13.91334
       O     5.29881   12.48536   14.17249
      H1     5.19797   13.38764   14.41211
       H    -1.38930    6.30372   14.90753
       O    -0.85101    6.05533   14.10578
      H1    -1.33332    6.69135   13.52774
       H     0.99027    5.66441   14.03477
       O     1.94322    5.75072   13.90375
      H1     2.29959    5.40689   14.76047
       H    -2.00111   11.20629   14.18211
       O    -1.79905   11.37468   15.10254
      H1    -1.29076   10.58733   15.23647
       H     6.28589    3.85419   12.71503
       O     5.96866    3.00879   12.39353
      H1     6.43276    2.98564   11.52454
       H     2.65504    9.76746   18.25945
       O     2.79390   10.61198   18.70672
      H1     3.54030   10.91410   18.25529
       H     6.79747   10.56284    9.43533
       O     7.30240    9.84384    9.91577
      H1     6.73074    9.83681   10.69786
       H     6.10809    8.11971   18.75964
       O     5.99437    7.76431   19.62661
      H1     6.95650    7.64658   19.86784
       H     3.07835    1.64710   14.73621
       O     2.99062    2.59770   14.81283
      H1     2.97618    2.63725   15.77578
       H     6.76207   12.22968   11.66229
       O     7.32978   12.21146   12.49104
      H1     6.59178   12.31260   13.18253
       H     1.19493    6.90010   11.61686
       O     0.33582    7.22670   11.32821
      H1     0.55711    7.20659   10.34679
       H     5.81259    5.39083   14.29468
       O     6.43951    5.37883   13.54976
      H1     7.29250    5.23125   13.99955
       H     9.57163    8.49131   18.17839
       O     9.53420    7.70340   17.57611
      H1     9.67814    6.95133   18.19635
       H    11.17410    5.14735   19.75439
       O    10.49741    5.57393   19.23688
      H1    11.06339    6.35984   19.07294

