180
frame 8 | Written by MDAnalysis XYZWriter (release 2.4.3)
       H   -16.02944   18.82002   13.32118
       O   -16.93880   18.49084   13.43168
      H1   -16.78988   17.63037   13.85396
       H   -15.22461   14.37505    5.86357
       O   -14.27583   14.39022    5.76624
      H1   -14.07719   14.72241    4.88786
       H   -19.08571   14.05281    2.40486
       O   -19.21314   13.14285    2.15828
      H1   -18.34360   12.80842    2.11559
       H   -15.96883    6.40653    9.82302
       O   -15.63203    6.92579   10.59385
      H1   -16.14151    7.71302   10.57333
       H   -19.21447   16.36838    2.42850
       O   -18.75527   15.73170    2.99035
      H1   -19.20712   15.81861    3.90181
       H   -14.43684   17.04923    9.54733
       O   -14.55174   17.94075    9.09390
      H1   -14.27501   17.64658    8.19189
       H    -9.45011   15.89498   17.53370
       O   -10.08509   16.56922   17.68323
      H1   -10.48224   16.61986   16.80372
       H    -9.93213   15.07878   14.77768
       O   -10.36678   15.94461   14.83563
      H1   -10.84861   16.01420   13.97845
       H   -17.00036   15.60246   19.20304
       O   -17.24464   16.51391   19.28050
      H1   -18.16367   16.46736   18.87318
       H   -14.69028   14.15012   17.44154
       O   -14.05292   14.09037   16.70173
      H1   -13.51522   13.40623   17.10780
       H   -12.49395   10.14319   14.04607
       O   -11.88045   10.82293   14.18721
      H1   -11.14135   10.38016   14.61272
       H   -16.30951   15.24189   14.60009
       O   -17.15278   15.77364   14.56684
      H1   -17.00533   16.38892   15.32012
       H   -14.03768   16.14779   14.31531
       O   -14.17582   16.77344   13.61620
      H1   -13.95030   17.58836   14.11614
       H   -16.36756   11.09775    7.94017
       O   -17.15127   11.31065    7.44026
      H1   -17.70892   11.62569    8.17160
       H   -15.70660   17.58035   16.81127
       O   -16.09267   16.65202   16.77489
      H1   -16.56108   16.56882   17.64764
       H   -14.61127   19.66682   15.75348
       O   -14.63560   19.10568   16.61057
      H1   -13.77063   18.78769   16.72300
       H   -11.81358   14.33699   10.27713
       O   -11.33465   14.88578    9.63317
      H1   -10.51360   14.39464    9.51615
       H   -17.61014   14.89007    4.34379
       O   -17.30228   14.19852    4.93130
      H1   -18.09633   14.03168    5.58081
       H   -10.30291   13.24081    8.45234
       O    -9.39294   13.48441    8.70383
      H1    -8.99923   13.90617    7.93400
       H    -9.26142   13.79058   12.71906
       O    -9.10871   13.57716   13.66153
      H1    -9.11800   12.63080   13.59092
       H   -13.45930   19.70014    3.44758
       O   -12.86014   18.93734    3.42639
      H1   -11.98357   19.31942    3.10816
       H   -16.25532   10.03120   14.89272
       O   -15.92507    9.27053   15.37506
      H1   -16.53018    8.50425   15.13445
       H   -16.63071   13.31273   17.99140
       O   -16.14634   14.01572   18.43996
      H1   -15.61609   13.55920   19.09146
       H   -17.80079   17.43405   10.11356
       O   -17.39418   16.75436    9.60365
      H1   -16.47989   16.93508    9.43445
       H   -18.78553   17.04749    6.10791
       O   -19.43915   16.52913    5.60969
      H1   -19.97179   17.25486    5.21428
       H   -18.50734   10.08810    4.58124
       O   -18.76773    9.22310    4.17938
      H1   -18.60027    9.36655    3.21011
       H   -17.86960    9.38972    9.87702
       O   -17.29270    9.21175   10.60973
      H1   -16.78815   10.00052   10.56299
       H   -11.75769   15.94647   11.42315
       O   -11.68633   16.27960   12.33580
      H1   -12.60321   16.39415   12.48684
       H   -12.07060   17.15676    7.14729
       O   -11.22536   17.26020    7.71322
      H1   -11.37414   16.69058    8.47606
       H   -13.04293   18.15071    1.65278
       O   -13.45260   17.59052    1.00243
      H1   -14.03091   18.33470    0.69606
       H   -13.03901   16.41555   16.64103
       O   -12.50820   16.84905   15.98828
      H1   -12.00683   16.07561   15.64613
       H   -11.12640   13.55614   12.36275
       O   -11.80052   13.13496   11.79707
      H1   -11.59857   12.17561   11.85869
       H   -17.29138   18.54216    8.36879
       O   -17.66778   19.22607    7.79858
      H1   -18.66673   19.13706    7.76836
       H    -8.33348   15.46690   12.05207
       O    -8.82560   15.04864   11.33363
      H1    -9.64106   15.63696   11.24245
       H    -8.67103   16.74887    7.65229
       O    -7.77173   16.75576    7.92029
      H1    -7.79482   17.58007    8.48129
       H   -13.17312   15.22482    3.06928
       O   -13.04286   15.66688    3.88328
      H1   -13.13540   16.56098    3.61004
       H    -8.25900   19.72484    8.76167
       O    -7.74588   19.18250    9.35888
      H1    -8.24798   19.25287   10.20659
       H   -14.63179   15.12930   10.98536
       O   -14.27100   16.03698   11.01338
      H1   -14.71633   16.39504   11.77513
       H   -13.30651   11.38489    7.03757
       O   -13.88687   10.57699    6.94719
      H1   -14.17310   10.72640    6.01227
       H   -14.09753   17.60455    5.92933
       O   -13.65945   16.97678    6.47096
      H1   -13.80859   16.11203    6.04069
       H   -16.88029   11.21605   12.78388
       O   -16.89078   11.22610   13.75892
      H1   -17.63871   11.78051   13.96968
       H   -15.57265   11.69796    4.56899
       O   -14.69001   11.32877    4.30244
      H1   -15.01276   10.47948    3.95660
       H   -16.61828   18.99300    2.90641
       O   -17.37528   18.73954    2.32765
      H1   -16.97111   18.26637    1.63444
       H    -7.87278   14.33075    5.96634
       O    -8.72853   13.86829    5.98133
      H1    -9.45049   14.56902    5.75022
       H   -11.39909   15.89716    6.34480
       O   -10.88557   15.60751    5.56916
      H1   -11.63278   15.44625    4.94717
       H   -18.28893   18.25586   12.21084
       O   -18.99226   18.18239   11.54142
      H1   -19.14131   19.09581   11.27931
       H   -17.23607   14.28121   10.68085
       O   -17.53806   13.45937   11.06296
      H1   -18.19779   13.14529   10.38025
       H   -16.15837   12.18723   10.69001
       O   -16.02611   11.41724   10.04765
      H1   -15.12184   11.12078   10.33932
       H   -13.52380   12.83483    1.85834
       O   -13.66273   11.87342    1.81685
      H1   -13.99701   11.71566    2.75616
       H   -17.09327   18.15881    4.93919
       O   -16.43898   17.43273    5.12655
      H1   -16.20803   17.14256    4.23460
       H   -18.63727   14.16814   12.46923
       O   -19.25893   14.49897   13.17633
      H1   -18.57784   14.70273   13.91805
       H   -17.75450   11.91074   16.57388
       O   -17.92200   12.88091   16.44140
      H1   -18.63701   12.96290   17.05915
       H   -14.89312   13.56995   15.23542
       O   -15.46682   13.63034   14.42452
      H1   -15.90180   12.76451   14.47593
       H   -10.31216   19.02628    4.87088
       O   -10.00238   18.21156    4.39191
      H1   -10.46119   17.43253    4.83010
       H   -10.91642   20.08488   14.54049
       O   -11.70340   19.45708   14.78631
      H1   -11.26559   18.61613   14.82757
       H   -12.99002   13.54827    6.63458
       O   -12.27404   13.01333    6.95823
      H1   -12.08966   12.40308    6.17186
       H   -12.99035    9.88624   11.20562
       O   -13.77352   10.14751   10.68935
      H1   -13.56915    9.84304    9.82716
       H   -13.78183   13.04130   11.99333
       O   -14.74055   13.23189   11.91975
      H1   -14.88215   13.40816   12.87129
       H   -19.31631    7.57729   11.97782
       O   -19.32734    8.45148   12.39668
      H1   -18.81671    8.97681   11.75760
       H   -17.67551   12.46306    4.63529
       O   -17.53861   11.54529    4.88497
      H1   -17.45518   11.58861    5.82689

