180
frame 0 | Written by MDAnalysis XYZWriter (release 2.4.3)
       H    -1.62937    9.47096    7.64547
       O    -2.42913    9.63272    8.05910
      H1    -2.79720    8.79658    8.32860
       H    -6.51489   13.50935   16.22719
       O    -5.99279   14.23564   16.58415
      H1    -6.56659   14.69801   17.16754
       H    -6.70709   11.79192   14.44923
       O    -7.02731   12.02691   15.32440
      H1    -7.92115   11.64999   15.23399
       H    -5.93296   10.66617   10.08113
       O    -5.64315   11.54521   10.40460
      H1    -5.76661   11.57619   11.40117
       H    -1.55813   14.82963    7.61560
       O    -1.63971   15.78054    7.50679
      H1    -2.45509   15.87080    6.88162
       H    -8.06713   13.82250   12.97850
       O    -7.14079   13.90396   12.65308
      H1    -7.11671   14.06197   11.70313
       H     3.02455   16.82206   13.09988
       O     2.30639   16.63750   13.74274
      H1     1.76733   16.04697   13.15517
       H     0.57298    9.22954    6.16440
       O     0.50491    9.42406    7.10978
      H1     1.22246    9.97638    7.37199
       H     2.29970   15.05689    7.97582
       O     3.05299   15.48061    8.48138
      H1     2.81521   16.41251    8.34539
       H     0.52431    6.62760   10.13058
       O     0.44774    6.37043   11.03513
      H1     1.15435    6.86634   11.46490
       H    -0.62742    8.40181   12.24982
       O    -1.45773    8.82207   12.41647
      H1    -1.46113    9.68425   12.02480
       H     3.16297   11.37174    7.46420
       O     2.35243   11.04684    7.80698
      H1     2.47543   11.02363    8.78551
       H    -2.09661   12.30769   11.33292
       O    -1.55138   13.08242   11.13124
      H1    -1.60222   13.11447   10.17666
       H    -9.54516   12.61014   10.82021
       O    -9.92663   13.05068   10.02778
      H1    -9.22219   13.55430    9.65018
       H     1.49630   13.23546    5.98895
       O     1.76324   13.45403    6.88936
      H1     1.97788   12.57396    7.26320
       H    -3.35955    7.91354   11.90389
       O    -4.11336    7.48261   11.49467
      H1    -4.13070    6.55997   11.68128
       H    -6.22807   16.81747   14.68077
       O    -6.53472   17.62985   15.08241
      H1    -5.94808   18.30994   14.67155
       H    -3.80883   11.05405   10.52435
       O    -2.96313   10.62395   10.76770
      H1    -2.55291   10.31993    9.95196
       H    -2.95617    7.18064    9.66448
       O    -2.81350    7.00874    8.73671
      H1    -1.85172    6.88608    8.65548
       H     5.06989   13.62584   10.82745
       O     5.30452   12.80635   11.25132
      H1     4.49848   12.27594   11.11953
       H    -6.90413    7.96685   15.61735
       O    -6.23674    8.07448   14.94940
      H1    -5.46857    7.57372   15.32338
       H    -2.38495   16.69159   10.97961
       O    -2.49924   16.84918   10.06038
      H1    -1.93386   16.27626    9.51519
       H     0.58409   13.25034   17.13035
       O    -0.10352   12.54179   16.99134
      H1    -0.80339   12.73113   17.63963
       H    -1.55345   12.96037    7.72033
       O    -1.03685   13.36660    8.40478
      H1    -0.05400   13.39569    8.17398
       H    -0.89298   13.46401   15.20706
       O    -1.23191   13.53858   14.33687
      H1    -0.89615   14.40964   14.09181
       H    -0.31935   14.62194   12.27236
       O     0.59554   14.81435   12.44685
      H1     0.84416   13.97402   12.86449
       H    -3.59168   16.08898   13.33921
       O    -2.74820   16.35828   12.96984
      H1    -2.19893   16.37841   13.76357
       H     1.77319   14.28928   11.26505
       O     2.49518   14.07930   10.64274
      H1     2.45302   14.75975    9.96190
       H    -2.37586   11.98566    4.95263
       O    -2.04680   12.11682    3.97204
      H1    -2.12669   11.30042    3.49749
       H     2.39161    9.34733   13.03004
       O     2.71593   10.25444   13.09791
      H1     1.88571   10.83780   13.16348
       H    -0.19823   12.23163   13.35923
       O     0.38059   11.88442   12.71387
      H1    -0.07587   12.18497   11.90209
       H    -6.13072    8.27022    9.31593
       O    -6.26688    8.48150   10.22110
      H1    -5.50574    8.07074   10.62162
       H    -5.67359   10.41311   12.91457
       O    -5.62730   11.33429   13.06980
      H1    -4.67879   11.49542   13.23795
       H    -1.20685    9.29013   14.48911
       O    -0.85617    8.90129   15.32047
      H1    -0.21296    9.52929   15.63279
       H    -5.74637   14.76958   13.72204
       O    -5.18705   15.41275   14.17192
      H1    -5.30994   15.14243   15.11125
       H    -0.22062   19.01101    9.03838
       O    -0.05364   19.14295    8.09757
      H1    -0.73458   18.67247    7.57174
       H     5.92107   15.44212    9.05155
       O     5.53632   15.36384    9.91709
      H1     4.56241   15.21907    9.75621
       H    -4.46266   16.64462   16.92396
       O    -3.56725   16.42087   16.71980
      H1    -3.14316   16.07627   17.54408
       H    -2.48353   12.36622   14.21565
       O    -2.95826   11.49197   14.32048
      H1    -3.51545   11.78052   15.11731
       H    -2.66234   11.21579    7.13885
       O    -2.70392   12.02234    6.63358
      H1    -3.64301   12.23277    6.61718
       H     2.02002    6.97359    8.41874
       O     1.15196    7.01705    7.98315
      H1     0.94638    7.89809    7.63613
       H    -0.22292   12.47997    4.37528
       O     0.66573   12.81302    4.45730
      H1     0.73112   13.59603    3.84796
       H     0.66605   17.16200    5.57672
       O    -0.32681   17.02327    5.66854
      H1    -0.52751   16.49307    6.42805
       H    -7.55378   13.90377    8.90127
       O    -7.21575   13.81382    9.78747
      H1    -6.76236   12.97459    9.79411
       H    -3.90079   17.35427    8.96977
       O    -4.57799   17.93303    8.56361
      H1    -4.32052   18.03392    7.65860
       H    -6.12761   17.02490    8.77659
       O    -7.06206   16.76089    8.80529
      H1    -6.94446   15.92033    9.31758
       H    -2.00473   19.22440   14.20264
       O    -2.46342   19.08034   13.34840
      H1    -2.55666   18.14339   13.31877
       H     1.86336    9.79154   17.23712
       O     0.94300    9.92902   17.32801
      H1     0.75539   10.88652   17.36519
       H     1.65666    7.18548   13.88268
       O     1.14294    7.92703   13.43867
      H1     0.50707    8.25776   14.09188
       H    -2.13643   16.91034   16.00765
       O    -1.27433   17.10418   15.64800
      H1    -1.17933   18.02352   15.87066
       H    -6.64856    9.99414    6.18924
       O    -7.16496   10.63537    6.77305
      H1    -8.05037   10.31928    6.71187
       H     4.50347   10.22520   13.73134
       O     5.33824   10.10010   14.28266
      H1     5.59198   11.02443   14.50830
       H     3.04714   15.43985   14.67092
       O     3.56450   14.90403   15.26768
      H1     3.05040   14.77658   16.06741
       H    -5.76012   10.49311   18.24170
       O    -5.15038   10.82994   17.49014
      H1    -5.69527   11.40237   16.96329
       H     2.47250   12.34633   10.72089
       O     2.88401   11.44960   10.57646
      H1     2.88676   10.97839   11.46712
       H    -3.74335    9.69433   17.08084
       O    -3.21343    8.90119   17.32154
      H1    -2.39846    8.95862   16.79856
       H    -4.95334   15.71000    5.83952
       O    -4.00544   15.70462    5.86884
      H1    -3.60778   15.19973    5.08279
       H    -6.60150    6.72259    7.34280
       O    -5.97139    7.43723    7.45257
      H1    -5.12952    7.04393    7.23236
       H    -6.60888   13.69919    5.79401
       O    -5.89752   13.01743    5.80074
      H1    -6.47650   12.21962    5.96762
       H    -4.56978   13.83730   18.05514
       O    -4.46208   13.73897   19.03527
      H1    -5.23308   13.29475   19.42244

