180
frame 134 | Written by MDAnalysis XYZWriter (release 2.4.3)
       H    13.02730   12.93343   16.34477
       O    13.24832   13.42050   15.44795
      H1    13.35214   14.33980   15.70403
       H    17.33090   11.15966   17.24174
       O    17.78178   11.96795   17.46729
      H1    17.69487   11.98166   18.41330
       H     7.11848   10.43363   17.28668
       O     7.10006   11.29619   17.73456
      H1     7.98065   11.41960   18.14889
       H     9.62375    9.34648   19.63578
       O    10.16578    9.71089   18.92546
      H1    11.03580    9.81258   19.42270
       H     8.62919   15.51152   18.52661
       O     8.96336   14.68049   18.90980
      H1     8.74378   14.88254   19.82895
       H     6.47594   18.73273   15.15423
       O     6.60774   18.41683   16.10133
      H1     6.94354   19.18284   16.54320
       H    13.50830   16.34481   16.60108
       O    12.77044   16.00613   17.06688
      H1    13.18377   15.56300   17.82781
       H    16.62728   15.51175   17.27609
       O    16.37512   16.26636   17.84963
      H1    16.85825   17.03699   17.52636
       H     8.83261   13.48677   15.58997
       O     9.61493   14.05862   15.55032
      H1     9.82550   13.97723   16.44484
       H    13.25863   13.29829   11.56062
       O    13.08143   13.25836   12.50383
      H1    13.88971   13.59687   12.90238
       H     3.37919    8.99201   15.37122
       O     3.72591    9.84081   15.69136
      H1     4.65852    9.58343   15.92236
       H    12.20884   12.19678   17.89375
       O    12.99481   11.65930   17.48327
      H1    12.61348   10.81711   17.12474
       H    12.67961    4.62007   18.20502
       O    12.15639    4.03917   18.75771
      H1    12.11363    4.70590   19.50501
       H    10.43355   11.11411   17.44320
       O    10.29279   12.02843   17.22921
      H1    10.37062   11.93135   16.28576
       H    16.03211   12.45338   11.75305
       O    15.74940   11.56363   11.76111
      H1    15.23398   11.69277   12.65924
       H    15.67622    7.94950   18.05732
       O    16.14871    8.26211   18.85735
      H1    15.87163    9.22544   18.92940
       H    14.96346    7.16219   15.95839
       O    14.76029    7.43156   16.85127
      H1    14.01264    6.89551   17.01299
       H    11.35530   14.04953   19.85035
       O    11.61903   13.66669   18.95414
      H1    10.76742   13.44182   18.56913
       H    19.42685   14.45762   16.44370
       O    18.96522   15.14146   16.93810
      H1    19.57450   15.83356   16.69200
       H    18.16453   16.66130   13.41050
       O    19.10632   16.66845   13.16085
      H1    19.45675   15.91597   13.62862
       H    16.11067   13.37669   15.35308
       O    16.42693   14.26697   15.59845
      H1    17.17192   14.01832   16.24263
       H    18.27450   17.94107   16.20953
       O    17.50020   18.50342   16.43192
      H1    17.00808   18.43053   15.61092
       H    14.79273   16.62937   14.44422
       O    13.89666   16.99232   14.54873
      H1    13.41842   16.81064   13.72494
       H     7.08715   12.40883   16.53477
       O     6.97678   12.97261   15.69067
      H1     6.62415   13.81664   16.07150
       H     6.66734   11.00706   13.22260
       O     6.20196   11.88782   13.16725
      H1     6.63572   12.31048   13.94984
       H    10.94529   10.01422   12.25560
       O    10.04859   10.27567   12.09086
      H1     9.63014    9.39935   12.25972
       H     5.10664   14.84404   15.14236
       O     5.76325   15.51029   15.61811
      H1     6.44398   15.66929   14.94901
       H     7.77678    5.35300   18.29341
       O     7.94757    5.89684   17.49305
      H1     8.75938    6.41974   17.62915
       H    18.96381   14.73740   18.76158
       O    18.94807   14.61899   19.71430
      H1    19.87910   14.43472   19.95527
       H     7.61903   15.56861   12.63292
       O     7.59164   15.64280   13.64773
      H1     8.49915   15.50058   13.86085
       H    13.45437    8.57313   16.35720
       O    12.67725    9.20746   16.33517
      H1    12.69220    9.52999   15.46097
       H     4.88990   12.98515   13.86034
       O     4.23813   13.63581   14.16518
      H1     3.49443   13.03442   14.51120
       H     6.44867    7.64053   17.12897
       O     6.32093    8.36800   16.54040
      H1     7.15528    8.51987   16.04649
       H    12.20574    5.46648   16.29151
       O    12.56714    6.11549   16.93528
      H1    11.77420    6.67149   17.03256
       H    14.74179   13.89640   18.77560
       O    14.50652   14.79006   19.06817
      H1    15.10341   15.35983   18.52062
       H     9.90663    7.84844   16.55427
       O    10.17253    7.43872   17.38405
      H1    10.21050    8.27229   17.83777
       H    11.89053   16.73534   11.94571
       O    12.73695   16.46022   11.71971
      H1    12.64027   15.51462   11.54865
       H     5.04881   15.12565   18.39574
       O     4.99803   16.08232   18.35058
      H1     5.35345   16.25075   17.46645
       H    16.39353   15.82209   13.09624
       O    16.37437   16.39907   13.84752
      H1    16.47519   15.70844   14.53730
       H    15.37791   11.08001   14.42183
       O    15.25666   12.03840   14.35183
      H1    14.35764   12.12223   14.73560
       H     3.38967   16.20800   17.95129
       O     2.57587   16.48320   17.56274
      H1     2.98243   16.89470   16.76793
       H     8.83451   14.32066   10.53457
       O     9.71675   14.85592   10.51179
      H1    10.01662   14.72514   11.39787
       H     7.38188    9.90131   11.44484
       O     7.29241    9.52448   12.39469
      H1     7.13585    8.60774   12.15804
       H    11.45310   19.08985   12.40257
       O    11.67091   19.84963   11.82100
      H1    12.61844   19.84568   11.68761
       H    15.38234   11.57911   19.72460
       O    15.01684   10.76963   19.24680
      H1    14.22509   11.14362   18.83633
       H    17.36101    8.74482   17.40630
       O    17.37488    9.23429   16.56804
      H1    17.52523    8.56958   15.88888
       H    13.27786    8.82334   11.02463
       O    13.62027    8.77481   11.93514
      H1    12.84622    8.23036   12.30610
       H    17.45325   13.90907   12.28383
       O    16.54909   14.14066   12.02069
      H1    16.87471   14.57543   11.15566
       H     4.23952   18.35322   15.84963
       O     3.99269   17.58696   15.35987
      H1     4.79809   17.02587   15.44392
       H    10.69404   10.89485   10.54593
       O    11.10453   11.18481    9.70915
      H1    11.69910   10.47332    9.62503
       H    11.03510   16.78323   16.25307
       O    10.16458   16.79425   15.78309
      H1     9.90910   15.84676   15.85172
       H     9.76267   12.06291   13.78288
       O     9.98609   11.57910   14.60205
      H1    10.75061   11.08056   14.30875
       H    15.98105    9.28566   15.41016
       O    15.34802    9.22165   14.66666
      H1    15.99750    8.98937   13.96586
       H     7.44475   17.56536   17.44289
       O     8.29305   17.34333   17.89488
      H1     8.91063   17.34203   17.17101
       H     9.99123   17.25922   13.91644
       O    10.45759   17.61785   13.11708
      H1     9.71494   17.61546   12.49680
       H     9.22018    8.56277   14.44696
       O     9.14582    9.00879   15.28790
      H1     9.16084    9.88692   14.93315
       H    12.41194   11.27479   13.47951
       O    12.44315   10.34943   13.81331
      H1    12.92087    9.91714   13.09626
       H    10.43118   13.68707   13.97537
       O    10.42259   13.71867   12.98428
      H1    11.33042   13.51212   12.68251
       H     2.43263   13.57780   19.76417
       O     2.14304   12.65080   19.62780
      H1     1.39741   12.82897   19.08978
       H     8.66340    6.26648   13.21374
       O     9.18433    7.00482   13.49798
      H1     9.83919    7.01526   12.83569

