180
frame 11 | Written by MDAnalysis XYZWriter (release 2.4.3)
       H    -4.20777   -3.48575  -11.73184
       O    -3.46627   -3.73473  -11.16217
      H1    -2.61969   -3.40699  -11.52018
       H   -11.36809   -0.60585  -10.21244
       O   -11.44970    0.23091   -9.72956
      H1   -11.74976    0.94997  -10.34226
       H    -6.95366   -4.34129  -17.11750
       O    -7.17977   -4.43224  -16.16719
      H1    -6.44936   -4.01927  -15.69726
       H   -14.39043   -2.30032  -11.20164
       O   -13.82936   -3.02973  -11.40359
      H1   -14.27365   -3.38991  -12.21154
       H    -8.74567   -0.48135   -9.22701
       O    -8.59529   -1.23679   -9.80990
      H1    -9.44927   -1.50338  -10.19590
       H    -7.23750   -1.33958  -13.59928
       O    -7.52121   -0.70338  -14.28460
      H1    -8.26255   -1.12418  -14.74838
       H    -1.95609   -2.84688  -15.03469
       O    -1.49936   -3.64624  -15.27551
      H1    -0.84740   -3.83371  -14.53700
       H   -10.83307  -10.07514  -12.46013
       O   -11.45177  -10.27282  -13.14297
      H1   -10.99770  -10.29210  -14.02498
       H   -12.99135   -6.09873  -10.85701
       O   -12.17521   -5.90609  -10.29025
      H1   -12.03026   -4.97496  -10.37601
       H   -15.69551   -4.02756   -8.39247
       O   -15.42861   -4.72931   -9.02145
      H1   -14.78771   -4.31199   -9.59308
       H    -4.87591   -3.79518  -18.02535
       O    -5.59330   -4.35928  -18.46957
      H1    -5.71934   -4.01181  -19.36984
       H    -6.63974   -6.85551   -9.12086
       O    -7.25168   -7.52140   -9.50258
      H1    -7.94565   -7.05335  -10.01087
       H    -9.10150   -6.99768   -4.56484
       O    -8.46381   -6.25020   -4.56535
      H1    -8.49064   -5.88022   -5.43354
       H    -8.23101   -9.34167  -17.77065
       O    -9.13939   -9.16863  -17.65415
      H1    -9.23410   -8.28221  -17.26289
       H   -13.90410    1.13048   -7.93779
       O   -13.80296    0.22888   -8.17292
      H1   -12.98292    0.21651   -8.66266
       H    -1.78401   -0.35489  -15.33933
       O    -2.28526   -1.06708  -14.80789
      H1    -2.49582   -0.65883  -13.97562
       H    -8.94332   -5.14277   -7.38600
       O    -8.09935   -4.92919   -6.95793
      H1    -7.40779   -5.08685   -7.62491
       H    -5.61582   -9.56103  -11.60418
       O    -5.92079   -9.94129  -10.74430
      H1    -6.55041   -9.25382  -10.46674
       H   -13.43308   -1.45060  -15.24262
       O   -12.46273   -1.46957  -15.26418
      H1   -12.14784   -1.05937  -14.44631
       H   -10.54994   -6.56589  -16.88534
       O   -10.97350   -7.27430  -16.33290
      H1   -11.87295   -7.12645  -16.40400
       H    -5.77257    0.14764  -10.45889
       O    -6.01784   -0.76718  -10.43874
      H1    -6.95237   -0.73350  -10.20568
       H    -3.54548   -3.18017  -16.32376
       O    -4.00353   -2.63345  -16.94849
      H1    -3.38761   -2.48785  -17.75712
       H   -10.45005    3.01651  -12.05920
       O    -9.85744    2.29548  -11.72088
      H1    -9.02425    2.45421  -12.18369
       H    -9.96663   -6.03415  -12.53943
       O    -9.74725   -6.23059  -11.61314
      H1   -10.68439   -6.12613  -11.26781
       H    -8.98424    2.84436  -10.19012
       O    -8.58433    2.97906   -9.30593
      H1    -8.85085    2.13820   -8.84976
       H    -6.57608   -3.19181  -12.24510
       O    -5.73670   -2.78532  -12.54470
      H1    -5.55815   -2.07242  -11.91025
       H    -9.36746  -10.03830  -11.29358
       O    -9.79868   -9.22071  -11.04358
      H1    -9.34527   -8.43950  -11.44441
       H    -7.51675   -8.73608   -8.31509
       O    -7.51085   -9.40635   -7.57984
      H1    -7.05198   -8.94786   -6.86712
       H   -10.00798   -2.94367  -15.59487
       O    -9.46981   -2.20319  -15.73661
      H1    -8.60450   -2.55181  -15.92169
       H   -12.42537   -3.14708  -16.39114
       O   -12.41516   -3.92284  -16.97041
      H1   -12.66890   -3.64427  -17.85435
       H    -8.55552    2.25420  -15.44909
       O    -7.66458    2.33606  -15.12551
      H1    -7.46605    1.39914  -14.93488
       H   -11.65451   -6.22679   -7.09090
       O   -11.04888   -5.77582   -7.65688
      H1   -11.43529   -5.88467   -8.52749
       H    -7.05815   -2.79588  -18.64070
       O    -7.99269   -2.52064  -18.50468
      H1    -8.31535   -3.26261  -17.92557
       H   -10.78851   -9.04041   -8.09664
       O   -10.23874   -9.46560   -7.45435
      H1    -9.35129   -9.48374   -7.75149
       H    -7.95798   -6.15636  -16.54718
       O    -8.01431   -7.07985  -16.20438
      H1    -8.04746   -6.93251  -15.28276
       H    -4.69954   -0.99981  -16.24136
       O    -5.47698   -0.39216  -16.19032
      H1    -6.00687   -0.67297  -15.44322
       H    -5.68462   -4.32071   -8.77141
       O    -5.91347   -5.29161   -8.60847
      H1    -5.41095   -5.54960   -7.83638
       H   -10.36856   -1.06024   -4.71157
       O    -9.70337   -0.77511   -5.31367
      H1    -9.67525   -1.48619   -5.96552
       H   -10.95657   -5.97697  -14.67317
       O   -10.46136   -5.32310  -14.17719
      H1    -9.69697   -5.19043  -14.72185
       H   -11.30799    0.88834  -12.79280
       O   -11.86875    0.18603  -13.14917
      H1   -12.62848    0.74054  -13.47556
       H   -11.20823   -2.77031   -9.42002
       O   -11.00108   -2.92368  -10.32142
      H1   -11.86943   -2.73525  -10.70147
       H    -2.12639   -0.91154   -7.37143
       O    -1.88966   -0.95955   -8.33346
      H1    -2.59661   -1.45906   -8.77742
       H    -4.20572   -7.02077  -10.52839
       O    -3.67819   -7.52477  -11.08441
      H1    -4.13326   -7.77022  -11.89122
       H   -10.57205   -4.40453  -17.11514
       O   -10.02356   -5.10955  -17.53862
      H1   -10.33545   -5.19091  -18.49051
       H    -8.54440   -3.16960   -7.16321
       O    -9.12547   -2.44301   -7.41875
      H1    -8.74328   -2.08970   -8.25817
       H   -10.45255   -1.22703  -16.85271
       O   -10.94224   -0.56797  -17.41304
      H1   -11.89575   -0.64510  -17.18345
       H    -3.94841   -9.66002  -13.27032
       O    -4.63685   -9.01331  -13.13953
      H1    -4.92580   -8.71419  -14.02433
       H    -6.08048   -0.05123  -18.00335
       O    -6.29476    0.25748  -18.90629
      H1    -6.44015    1.24636  -18.84017
       H    -9.11507   -3.30432  -12.19806
       O    -8.33363   -3.84732  -12.28285
      H1    -8.61407   -4.79239  -12.27797
       H   -10.74926    2.47730  -16.22484
       O    -9.93023    2.06466  -16.57483
      H1   -10.14279    1.16867  -16.90713
       H   -12.00622   -7.90746   -9.36901
       O   -12.51046   -8.64377   -8.93309
      H1   -12.46881   -9.37758   -9.54709
       H    -4.73289   -1.58859   -9.60196
       O    -3.95848   -2.09147   -9.25947
      H1    -3.78572   -2.72884   -9.92815
       H    -2.80698   -4.77605  -15.41243
       O    -3.56155   -5.33835  -15.66790
      H1    -3.50790   -5.41108  -16.58403
       H    -5.04675   -6.93314  -15.72816
       O    -5.39922   -7.78167  -15.65947
      H1    -6.30244   -7.77962  -15.95842
       H    -4.06125   -8.42784   -9.41162
       O    -4.40926   -8.70862   -8.56884
      H1    -4.96072   -9.46319   -8.88333
       H    -5.37470    2.31968   -9.88825
       O    -5.29405    2.00313  -10.77584
      H1    -5.88405    2.42896  -11.41476
       H    -9.74933    0.55209   -7.42101
       O    -8.91402    0.65727   -7.88345
      H1    -8.35325    1.27168   -7.33552
       H    -7.04257    2.80894  -13.29529
       O    -7.07740    3.16478  -12.40262
      H1    -6.99165    4.12672  -12.43303
       H   -11.64389   -3.95067   -7.29606
       O   -11.65281   -3.04374   -7.56864
      H1   -10.73126   -2.78548   -7.63216
       H   -14.85854   -7.43600  -10.86732
       O   -14.34788   -6.88248  -11.46994
      H1   -14.19300   -7.44646  -12.24303

