180
frame 11 | Written by MDAnalysis XYZWriter (release 2.4.3)
       H    -9.53335    9.91845  -11.28978
       O   -10.31806   10.41180  -11.59760
      H1   -10.06517   10.61963  -12.51708
       H   -13.89109    9.20738  -11.52416
       O   -14.27863    9.20661  -10.60171
      H1   -13.69638    8.57957  -10.17925
       H   -18.59664   10.95239   -5.69004
       O   -17.64946   11.17931   -5.90758
      H1   -17.73623   12.05005   -6.24890
       H   -12.05384    9.91445  -12.25031
       O   -12.74160    9.58405  -12.86080
      H1   -12.50979    8.64739  -13.08724
       H   -17.52790   16.16149  -10.16347
       O   -18.35815   16.04712  -10.66383
      H1   -18.14314   16.66878  -11.39594
       H   -10.29293   12.95552  -15.62953
       O   -10.67176   12.56257  -16.42480
      H1   -11.56802   12.84251  -16.27438
       H   -15.16362   15.22843  -12.55843
       O   -14.76045   15.51339  -11.72392
      H1   -14.92718   16.52935  -11.78239
       H   -13.07595   12.33613  -11.23624
       O   -12.52267   12.86298  -10.64151
      H1   -12.04929   13.44023  -11.24787
       H   -15.70806   18.48469   -9.97692
       O   -14.87541   18.01295  -10.09070
      H1   -15.08781   17.08324   -9.76772
       H   -13.09894   18.33862  -10.77382
       O   -12.10246   18.31422  -10.85884
      H1   -11.90230   18.76549  -11.70571
       H   -16.95708    6.72323  -14.56114
       O   -17.06231    6.84138  -15.49208
      H1   -17.91541    6.44625  -15.69150
       H   -14.33399    5.82661  -13.44116
       O   -13.88424    5.10744  -13.94103
      H1   -14.34116    5.15024  -14.81724
       H   -10.82888    7.29221  -15.86932
       O   -10.17435    7.71817  -15.24709
      H1   -10.21751    8.70051  -15.38338
       H   -14.35530    7.51728   -8.28935
       O   -14.91205    7.87046   -7.58746
      H1   -15.56592    8.33721   -8.20807
       H   -14.79143    6.87975  -17.69744
       O   -15.05579    7.70604  -17.23985
      H1   -15.62146    7.37354  -16.50070
       H   -13.93405   19.69326  -13.06785
       O   -14.21316   18.75343  -12.94938
      H1   -13.95937   18.28246  -13.77508
       H   -11.21546   10.19972   -5.50913
       O   -12.09659   10.60224   -5.61668
      H1   -12.25956   10.70863   -6.53941
       H    -8.86244   10.82673  -14.46464
       O    -9.77979   10.52134  -14.35491
      H1   -10.17998   11.25301  -14.84811
       H   -11.02275    8.93729  -17.58589
       O   -11.62272    9.50453  -17.06310
      H1   -11.08680   10.34045  -16.92533
       H   -15.56284   11.24932  -15.05812
       O   -16.15789   11.93962  -15.36753
      H1   -16.94817   11.73758  -14.86240
       H   -14.99870   15.42800  -16.74816
       O   -14.96542   14.59610  -17.19668
      H1   -14.27897   14.14620  -16.63964
       H   -18.01056    7.40611   -8.77105
       O   -18.89484    7.10405   -8.50257
      H1   -18.59196    6.43398   -7.84626
       H   -17.23293   18.51263  -13.46900
       O   -16.67975   18.96129  -14.04668
      H1   -15.82791   18.92842  -13.56552
       H   -14.79334   10.48642   -6.43866
       O   -15.09410   10.36615   -5.48273
      H1   -16.00738   10.13920   -5.62428
       H   -12.29349   11.00142   -8.93598
       O   -11.43087   10.55918   -8.72081
      H1   -10.97685   10.76836   -9.54331
       H    -8.48915   14.19695  -10.90424
       O    -9.12635   13.62809  -11.31936
      H1    -8.53042   12.84944  -11.42871
       H    -9.06366   14.34886  -13.92549
       O    -9.19492   13.80861  -14.69040
      H1    -8.37183   14.01356  -15.14107
       H   -18.77935    8.20696  -11.83148
       O   -18.85199    9.10153  -12.24667
      H1   -19.25253    9.74059  -11.59213
       H   -14.18760   17.35274  -15.67047
       O   -13.37434   17.09271  -15.12710
      H1   -12.78847   17.33714  -15.86282
       H   -10.72166   17.88223  -16.06304
       O   -11.29754   17.60222  -16.78426
      H1   -11.02241   16.69616  -16.98952
       H   -18.58542   15.12503   -8.57173
       O   -18.81264   14.45613   -7.93190
      H1   -19.36324   13.86131   -8.50042
       H   -15.75049    7.68157  -12.93089
       O   -15.58274    6.74474  -12.77851
      H1   -16.48921    6.47724  -12.57516
       H   -19.30053   15.16068  -14.27828
       O   -18.55769   15.34327  -13.66770
      H1   -18.59324   14.49939  -13.18344
       H   -11.88017   15.33505  -13.18077
       O   -12.57335   14.69495  -12.90603
      H1   -13.16380   15.27738  -12.41394
       H   -13.30305   12.69521  -15.16789
       O   -13.09221   13.56220  -15.56230
      H1   -13.26791   14.06385  -14.71566
       H   -13.18970   10.34096  -14.36093
       O   -13.40273   10.87711  -15.11303
      H1   -13.09278   10.31595  -15.83996
       H   -11.18129   15.66238   -9.46644
       O   -10.62410   16.37688   -9.93103
      H1   -11.31974   17.01653  -10.13882
       H    -9.08966   12.72059   -9.87734
       O    -8.94702   12.27072   -9.04394
      H1    -8.95326   12.98557   -8.36017
       H   -11.29023    7.24886  -13.73290
       O   -11.86618    7.00077  -13.00244
      H1   -12.27398    6.24927  -13.38475
       H   -18.17424    5.35296  -12.78614
       O   -17.99941    6.08838  -12.14318
      H1   -18.93732    6.00002  -11.71098
       H   -18.99730   17.07892  -13.16195
       O   -18.79309   17.91434  -12.73375
      H1   -19.64521   18.36966  -12.68980
       H   -19.18769   11.62799  -14.70263
       O   -18.58331   11.37565  -13.96490
      H1   -18.73127   10.41460  -13.88823
       H   -11.55361    8.73566   -8.51776
       O   -11.90887    7.86014   -8.37269
      H1   -11.69339    7.32313   -9.15907
       H   -11.42784   16.24387  -14.60345
       O   -10.81665   16.47836  -13.88374
      H1   -10.98296   17.43358  -13.80255
       H   -18.23876   14.52299  -17.29120
       O   -17.70914   13.74784  -17.40935
      H1   -16.87224   13.99314  -16.94867
       H   -15.94637   12.59588   -8.83970
       O   -15.32417   13.25757   -9.22589
      H1   -14.57333   13.41547   -8.55484
       H   -13.96178   14.54947  -18.56183
       O   -13.43450   14.75251  -19.36979
      H1   -12.53157   14.99218  -18.92572
       H   -12.25827   13.29425   -6.94724
       O   -12.98344   13.07782   -7.60699
      H1   -12.49165   13.09074   -8.44721
       H   -16.00632   15.06234   -9.06494
       O   -16.24818   15.94033   -8.72288
      H1   -16.62269   15.86054   -7.83794
       H   -18.50107   11.14003   -8.64739
       O   -17.55004   11.01774   -8.54560
      H1   -17.49870   11.00886   -7.59204
       H   -17.62052   12.05167  -17.85242
       O   -17.45796   11.10591  -17.81343
      H1   -17.01587   11.12871  -16.92701
       H   -15.20905   12.71904  -11.00377
       O   -15.26415   12.15312  -11.80017
      H1   -15.25482   12.82409  -12.52097
       H   -16.69267   14.84474  -14.13043
       O   -15.79452   14.55220  -14.10323
      H1   -15.93747   13.64076  -14.39262
       H   -14.20285   10.41637   -9.25656
       O   -14.19057   10.55984   -8.27905
      H1   -14.14316    9.60056   -7.96952
       H   -13.21236   15.12535   -7.70353
       O   -13.21872   16.08638   -7.90610
      H1   -13.95106   16.32899   -7.30116
       H   -15.96956   10.31918  -12.55573
       O   -16.09681    9.47323  -12.99554
      H1   -17.06909    9.39910  -12.80565
       H   -18.45220   12.45172  -11.82686
       O   -18.62617   13.36795  -11.80102
      H1   -17.99593   13.61647  -11.12395
       H   -16.22306    8.82229  -10.08555
       O   -16.76526    8.50238   -9.36292
      H1   -17.06568    9.33729   -9.03783
       H   -16.21289   17.91695  -15.44327
       O   -16.08709   17.33915  -16.21685
      H1   -16.17950   18.05373  -16.89263
       H   -10.75818   12.49142  -18.12699
       O   -10.85972   12.52549  -19.11548
      H1   -10.68454   13.52617  -19.27647

