180
frame 2 | Written by MDAnalysis XYZWriter (release 2.4.3)
       H    11.48255  -12.31384   -3.82256
       O    10.67109  -12.72383   -4.14293
      H1    10.57442  -12.12647   -4.95272
       H    15.17758   -9.56803  -12.97796
       O    14.79351   -9.29677  -13.84140
      H1    14.98872   -8.32808  -13.78008
       H     7.46086  -17.39919  -10.77263
       O     8.37146  -17.70934  -10.79570
      H1     8.97501  -17.08754  -10.27016
       H     6.56425  -19.60615  -13.36825
       O     5.64404  -19.46894  -13.25480
      H1     5.38857  -18.62226  -13.71277
       H    17.53148  -16.46061  -11.45677
       O    17.08696  -16.17086  -10.68259
      H1    16.40791  -16.86249  -10.59675
       H    12.58085  -11.16817   -9.50811
       O    13.48122  -11.17525   -9.09686
      H1    13.54184  -10.33000   -8.62372
       H     5.70292  -17.39619   -9.48253
       O     5.60031  -17.58433  -10.38318
      H1     4.99750  -16.86351  -10.60413
       H     3.87181  -14.88016  -14.47485
       O     4.54929  -15.47378  -14.07839
      H1     5.32813  -14.86211  -14.07107
       H    15.62052  -18.85070   -8.21225
       O    14.89993  -19.34680   -8.60975
      H1    14.16193  -19.12521   -8.03580
       H    15.73628  -16.40861  -15.42428
       O    15.07450  -17.09901  -15.15363
      H1    15.54144  -17.48324  -14.42773
       H     2.35060  -13.45988  -12.22101
       O     3.23897  -13.16776  -12.42912
      H1     3.17023  -12.89858  -13.35586
       H     8.97570  -14.71418   -4.86965
       O     9.70593  -14.90789   -5.49776
      H1    10.30383  -14.21376   -5.19989
       H    11.43684  -13.46364  -15.23924
       O    12.20130  -13.79598  -15.71817
      H1    12.67356  -14.14911  -14.97672
       H     8.31385  -14.83216   -8.12908
       O     9.30709  -14.76503   -8.01505
      H1     9.37246  -14.75708   -7.07406
       H     8.31934  -17.41769  -13.77553
       O     7.63632  -16.79227  -13.84160
      H1     7.01458  -17.29163  -14.32840
       H     8.03551  -11.91856   -6.34661
       O     7.11514  -11.85861   -6.58079
      H1     7.10676  -11.37417   -7.41472
       H     4.27987  -15.02352  -11.78579
       O     3.91978  -15.73538  -11.26638
      H1     3.56673  -16.24960  -12.01571
       H    10.23144  -10.19670  -10.43773
       O    11.14028  -10.45659  -10.66596
      H1    11.00885  -11.34337  -11.07263
       H     3.98880  -13.55616   -9.04605
       O     3.53371  -12.78505   -8.66159
      H1     4.18029  -12.39510   -8.04939
       H    17.28412  -13.07991  -11.37471
       O    17.87455  -12.53138  -10.77503
      H1    18.80817  -12.63900  -11.05179
       H    12.11922   -7.92734  -17.41180
       O    12.81015   -8.24512  -16.76677
      H1    12.37199   -9.00206  -16.27812
       H    11.31376  -15.80749  -11.17841
       O    11.48743  -15.54333  -12.10388
      H1    12.41341  -15.30239  -12.06747
       H    12.11012  -17.13165  -12.82145
       O    12.78421  -17.83609  -12.93133
      H1    13.37902  -17.39856  -13.52298
       H     9.31936   -9.16468  -14.71621
       O     8.75191   -8.70899  -15.34413
      H1     8.97345   -7.76962  -15.21808
       H     6.62155  -14.39447  -12.09075
       O     7.01472  -14.17427  -12.99530
      H1     7.34473  -15.01720  -13.25840
       H    10.55057  -11.59852   -7.11440
       O    10.01524  -11.25746   -6.42163
      H1    10.14920  -10.28510   -6.40728
       H     8.90478   -9.29359  -16.81039
       O     9.03206   -9.82080  -17.66691
      H1     8.15874  -10.22898  -17.65384
       H    14.59393  -14.21979  -14.43227
       O    14.04749  -14.78522  -13.91498
      H1    14.39604  -15.66996  -14.23354
       H     6.78508  -13.59946   -7.37474
       O     6.55746  -14.56962   -7.71743
      H1     6.37917  -14.98163   -6.83315
       H    11.15902  -16.95085   -9.05787
       O    10.77883  -16.34286   -9.67008
      H1    10.20813  -15.81991   -9.01731
       H    11.43999   -7.31920  -10.17027
       O    10.77604   -7.25847   -9.45554
      H1    10.69863   -6.27974   -9.46231
       H     9.36671   -8.39908  -10.08814
       O     8.83120   -9.00202  -10.58645
      H1     8.38326   -8.32573  -11.13416
       H     5.68126   -8.72963  -13.02699
       O     6.55190   -9.06259  -13.23109
      H1     6.78407   -8.51872  -14.04971
       H    16.42891  -14.81094  -11.67568
       O    15.92825  -14.21224  -12.20698
      H1    15.35138  -14.85138  -12.70468
       H    10.48308  -12.15450  -15.64595
       O     9.80503  -12.68152  -15.19450
      H1     9.24207  -12.02943  -14.80911
       H    12.17411  -10.76988  -16.63906
       O    11.35975  -10.62627  -16.14065
      H1    10.69812  -10.43254  -16.81900
       H     8.66393  -14.07464  -15.45867
       O     8.03226  -14.77880  -15.72167
      H1     7.97530  -15.26780  -14.87606
       H    10.48162  -17.33536   -6.01782
       O    10.17336  -17.92379   -5.33400
      H1     9.65404  -18.65573   -5.69928
       H     6.71349  -13.82084  -15.97398
       O     5.82482  -13.38456  -16.03452
      H1     5.98054  -12.45058  -15.73117
       H    14.41298  -15.49197   -4.96482
       O    14.22805  -14.64167   -5.45068
      H1    14.23655  -14.05045   -4.66958
       H    12.12858  -13.14669   -8.70787
       O    11.23772  -12.86177   -8.90979
      H1    10.63307  -13.54002   -8.57744
       H    11.88014  -19.68267   -7.53324
       O    11.84475  -18.87655   -8.08403
      H1    12.02623  -19.19903   -8.94942
       H     7.01454  -10.73977  -13.74343
       O     7.32131  -11.48717  -14.27842
      H1     7.18025  -12.14187  -13.52962
       H     8.06892  -16.05374  -19.19377
       O     8.45816  -15.46093  -18.51941
      H1     8.00540  -15.68340  -17.67639
       H    10.99457  -17.08886  -17.54543
       O    10.28144  -17.60372  -18.00281
      H1     9.62518  -16.97501  -18.30600
       H    15.70642  -14.42962   -6.64580
       O    16.27270  -14.19034   -7.44705
      H1    15.65660  -14.26627   -8.17036
       H    12.00826  -15.49315  -16.35118
       O    12.30176  -16.16951  -16.97103
      H1    12.64644  -16.90960  -16.42068
       H    10.84339  -10.28423  -14.57880
       O    10.44674  -10.03998  -13.71160
      H1    11.06748   -9.42331  -13.27544
       H    13.60512  -12.68876   -8.20138
       O    13.82304  -13.65108   -8.10885
      H1    13.73042  -13.84104   -7.15003
       H     4.72663  -10.24834  -10.03160
       O     4.41145  -10.17327   -9.06804
      H1     3.97277  -11.02898   -9.02608
       H    15.82524   -9.84679  -10.30080
       O    15.15111   -9.61521  -10.95639
      H1    14.38652  -10.03698  -10.66243
       H     6.45337  -13.10184  -10.83916
       O     5.88213  -13.84145  -10.57647
      H1     5.98322  -13.81442   -9.61541
       H     7.00821   -8.85162   -9.19616
       O     7.00280   -9.48682   -8.46732
      H1     6.05295   -9.75858   -8.44114
       H    13.43459  -12.85755  -17.23244
       O    13.40603  -12.20451  -17.97212
      H1    14.29997  -12.42891  -18.34986
       H    12.92855   -7.77910  -11.62959
       O    11.95225   -7.87876  -11.75144
      H1    11.73464   -8.79887  -11.68685
       H    10.33587  -13.45328  -10.32243
       O     9.83501  -13.49572  -11.14770
      H1    10.42616  -14.12146  -11.60460
       H    16.26200  -13.38486  -15.04516
       O    15.39290  -13.23541  -15.46109
      H1    15.48556  -12.29369  -15.65233
       H    13.99024  -18.38193  -11.60555
       O    14.94139  -18.54585  -11.26995
      H1    14.72008  -18.89625  -10.40952
       H     8.45059  -12.40197  -10.94623
       O     7.61064  -11.88356  -11.10058
      H1     8.05392  -11.02404  -11.28162
       H     3.93803  -11.68290  -12.05259
       O     4.32881  -10.81176  -11.80873
      H1     5.09208  -10.68875  -12.32051

