180
frame 2 | Written by MDAnalysis XYZWriter (release 2.4.3)
       H    -5.15515  -10.45695   18.95904
       O    -5.97625  -10.46582   18.53534
      H1    -5.95462  -11.36092   18.23725
       H    -9.47342  -19.41078   14.42893
       O   -10.03064  -19.28619   15.21776
      H1    -9.59260  -19.85402   15.84909
       H   -15.11075  -10.12453   11.58168
       O   -14.19494  -10.03276   11.83500
      H1   -14.15915   -9.07705   11.96411
       H    -8.23484  -11.30543   13.79032
       O    -8.08698  -10.35380   13.95227
      H1    -7.58502  -10.10491   13.14948
       H    -6.87425  -13.41598   10.71515
       O    -7.15857  -14.17120   11.22000
      H1    -6.74147  -14.90508   10.67178
       H   -11.90524  -16.86380   17.63397
       O   -11.93644  -17.03718   18.58131
      H1   -12.73880  -16.58781   18.89882
       H   -13.57847  -12.46337   16.15412
       O   -13.70877  -12.12114   15.23420
      H1   -14.10207  -12.93041   14.78036
       H    -6.50854  -14.16327   13.07555
       O    -5.79561  -14.58646   13.64271
      H1    -6.31636  -15.33360   13.89516
       H   -14.03748  -13.40921   18.21108
       O   -13.81126  -13.77584   17.30722
      H1   -12.88788  -13.91745   17.38753
       H   -16.73324  -12.87602   16.35699
       O   -16.54484  -12.58884   15.43250
      H1   -15.65108  -12.17851   15.49642
       H   -15.16212  -19.15273   15.37764
       O   -14.64219  -19.22478   16.16346
      H1   -13.82335  -19.50232   15.72594
       H    -4.92702  -13.27170   16.44861
       O    -4.42995  -13.22807   15.63427
      H1    -4.96147  -13.66888   14.97820
       H    -7.53124   -7.82556   16.56242
       O    -8.03585   -7.07004   16.63879
      H1    -8.28843   -6.87393   15.70968
       H    -6.25256   -9.60090   16.82549
       O    -6.34326   -9.09423   16.05245
      H1    -6.59960   -9.65989   15.28224
       H   -12.46771  -11.78500   11.19625
       O   -11.89107  -12.46969   10.87184
      H1   -12.42460  -13.21714   10.88344
       H    -5.86526  -13.81375   18.04727
       O    -5.23284  -13.10858   18.29781
      H1    -4.43788  -13.62767   18.58650
       H    -9.45193   -7.86450   17.00507
       O   -10.37793   -8.13731   17.20619
      H1   -10.24154   -9.10301   17.41317
       H   -14.64413  -19.97702   13.15540
       O   -15.08223  -19.14933   13.49120
      H1   -14.82970  -18.47590   12.79228
       H   -16.31546  -14.22016    9.60523
       O   -15.54089  -14.66044    9.17158
      H1   -15.86129  -15.56850    9.42782
       H   -18.37753  -14.02946   15.02004
       O   -19.19557  -14.42649   15.39744
      H1   -19.00115  -15.34027   15.42083
       H   -10.47800  -15.31200    9.97830
       O   -10.75445  -16.00523    9.37015
      H1   -11.40185  -15.48039    8.82578
       H   -17.38218  -10.26336   11.67489
       O   -17.03687  -10.66835   10.87242
      H1   -16.89763  -11.57362   11.17897
       H    -2.06686  -14.59062   19.09905
       O    -2.31416  -13.94218   18.38604
      H1    -2.40033  -14.54664   17.63617
       H   -14.33418   -5.56395   17.54285
       O   -13.36716   -5.52397   17.60304
      H1   -13.13024   -6.45760   17.70066
       H   -16.78025  -17.80095    9.75890
       O   -16.14140  -17.61426    9.06881
      H1   -15.39808  -18.25519    9.23297
       H    -3.83947  -16.30190   16.88858
       O    -3.20681  -15.70869   16.48437
      H1    -3.64641  -14.90797   16.10400
       H   -10.93848  -17.87583   10.31802
       O   -11.20716  -18.62630   10.84570
      H1   -11.42785  -18.04397   11.67737
       H   -15.20587   -8.72020   15.76571
       O   -14.83330   -9.40284   16.34671
      H1   -14.53794  -10.08857   15.78177
       H   -13.69073   -8.55756   17.28916
       O   -13.02500   -8.18855   17.92341
      H1   -12.22717   -8.18386   17.40898
       H    -8.41096  -16.58770   14.75253
       O    -8.79255  -16.07072   15.46809
      H1    -8.73977  -15.12769   15.12724
       H   -11.88814   -8.06116   14.30512
       O   -11.63074   -7.32188   14.85023
      H1   -11.13780   -7.72400   15.60002
       H   -14.93708  -17.35393   10.75114
       O   -14.75416  -17.18689   11.69490
      H1   -15.61992  -16.86208   11.94800
       H   -11.63898  -14.44407   13.74900
       O   -11.27464  -13.67682   14.20821
      H1   -12.15205  -13.28863   14.43864
       H   -13.29911  -15.55971   11.36258
       O   -13.43406  -14.69210   10.95720
      H1   -13.92208  -14.79774   10.11951
       H   -11.29330  -16.40276   13.94097
       O   -11.61626  -16.28766   13.02385
      H1   -10.91633  -15.87562   12.61103
       H   -16.97893  -16.92101   16.23039
       O   -17.51404  -16.72736   15.44032
      H1   -17.96178  -17.55101   15.16094
       H   -10.93598  -14.32870   16.58075
       O   -11.04701  -13.75432   17.32794
      H1   -10.91644  -12.79778   16.97610
       H    -3.03965   -9.80121   19.63150
       O    -3.38863  -10.69072   19.57562
      H1    -3.18026  -10.92803   18.66487
       H    -1.03233  -19.38781   17.50287
       O    -1.57236  -18.84408   16.89182
      H1    -2.01309  -18.30738   17.50029
       H    -3.82683  -15.27169   13.55634
       O    -3.01978  -15.70625   13.81195
      H1    -3.02083  -15.68396   14.78615
       H    -8.99849  -14.62682   19.68001
       O    -8.93399  -13.82959   19.19079
      H1    -9.74946  -13.73652   18.69691
       H   -12.98441  -10.18680   13.11069
       O   -12.30570  -10.04974   13.81999
      H1   -12.42968  -10.84705   14.37941
       H    -9.87754  -16.63993    8.17499
       O    -9.32120  -16.88437    7.42268
      H1    -9.80761  -17.61414    7.04392
       H   -18.29984  -13.69138   16.96960
       O   -17.61950  -13.34535   17.61458
      H1   -18.23479  -12.67471   18.01105
       H    -4.23847  -18.41413   16.28683
       O    -4.98648  -18.30455   16.92710
      H1    -4.65405  -18.56988   17.80458
       H   -15.18789  -16.24317   17.41435
       O   -15.69164  -17.05772   17.47668
      H1   -15.10074  -17.72060   17.10920
       H   -17.48223  -11.23149   15.01998
       O   -17.95789  -10.38131   14.71847
      H1   -17.37147   -9.59691   14.95832
       H   -10.38712  -16.74778   15.81053
       O   -11.36479  -16.82350   15.69484
      H1   -11.53463  -17.80257   15.54039
       H   -13.79306  -15.00888   13.61066
       O   -14.30375  -14.14486   13.47202
      H1   -14.36428  -14.05444   12.49272
       H   -17.99468  -18.20247   11.45680
       O   -18.20358  -18.45057   10.53591
      H1   -18.77520  -19.23625   10.68058
       H    -9.65978  -13.26982   13.95878
       O    -8.68597  -13.17710   13.81901
      H1    -8.49608  -13.72416   13.02747
       H   -17.07424  -16.41880   13.56813
       O   -17.25301  -16.49705   12.62625
      H1   -18.17618  -16.34175   12.53994
       H   -10.22141  -13.66740   10.71838
       O    -9.94151  -14.41565   11.28857
      H1    -8.96859  -14.46269   11.11356
       H   -17.47403  -13.21573   11.61001
       O   -17.23273  -12.80763   12.51736
      H1   -16.71157  -13.39128   13.07249
       H    -7.07235  -17.88424   13.69285
       O    -6.67700  -17.04098   14.05362
      H1    -6.41338  -17.28800   14.94445
       H    -2.68509  -18.09563   14.70417
       O    -3.43948  -18.68804   14.55730
      H1    -3.65651  -18.43860   13.64012
       H    -5.66881  -19.12425   10.18220
       O    -6.20173  -18.36519   10.29910
      H1    -5.61893  -17.60402    9.98372
       H    -9.41048  -10.82507   18.49279
       O   -10.25502  -11.02130   18.07469
      H1   -10.92805  -11.17781   18.78777
       H    -4.78876  -16.81549   12.75240
       O    -4.41447  -17.53528   12.18868
      H1    -5.18310  -17.96282   11.79267
       H    -7.40154  -15.33368   17.24189
       O    -6.52241  -15.32947   17.46300
      H1    -6.57645  -15.70037   18.40276

