180
frame 7 | Written by MDAnalysis XYZWriter (release 2.4.3)
       H    15.47464  -16.17233    3.91666
       O    15.78319  -16.95779    3.45928
      H1    14.97956  -17.27727    3.10081
       H     8.06135  -15.86929    4.73687
       O     8.55805  -15.26875    5.32623
      H1     9.42553  -14.98086    4.87499
       H    16.13183  -16.94848   -2.74884
       O    16.49283  -16.12411   -2.94521
      H1    17.32664  -16.30304   -2.51360
       H    13.08219  -14.53122   -1.40753
       O    12.79241  -15.34110   -1.01421
      H1    12.12333  -15.67718   -1.65868
       H     6.77619  -13.96861    2.23308
       O     7.41709  -13.43083    1.68790
      H1     7.94777  -12.85015    2.28311
       H    10.75021  -17.53940    6.93010
       O     9.86231  -17.24973    7.20127
      H1     9.57640  -16.68072    6.49706
       H    16.66322  -14.02378    7.65952
       O    16.95570  -14.93722    7.44671
      H1    17.80139  -14.75725    7.01703
       H    10.79712  -13.53969    1.01902
       O    11.28498  -13.19657    1.76015
      H1    11.10649  -12.25622    1.62745
       H    10.53115  -16.35998   -3.49470
       O    11.31341  -16.60599   -2.88038
      H1    11.89841  -17.10768   -3.44069
       H    19.75416  -16.14331    7.85861
       O    19.29507  -16.68476    8.50152
      H1    18.38729  -16.29037    8.44871
       H     8.98807  -10.99597    3.92588
       O     8.29841  -11.40987    3.36759
      H1     7.51735  -10.82031    3.63076
       H    13.00321  -10.70677   -1.56301
       O    12.22983  -10.87711   -2.16299
      H1    11.49151  -10.89113   -1.46727
       H    17.28560  -19.12553    0.78601
       O    16.55067  -19.56874    1.27565
      H1    16.47143  -19.12839    2.17500
       H    16.40759  -14.21961   10.48691
       O    15.56477  -14.55975   10.79216
      H1    15.57026  -15.42130   10.35503
       H    14.69870  -17.26246    6.74960
       O    15.32783  -17.95857    6.39549
      H1    15.15303  -18.65846    7.02180
       H    10.33713  -17.43141    0.25950
       O    10.77496  -16.94351    1.01435
      H1    10.46424  -15.99477    0.87790
       H    16.54547  -15.00100    1.33899
       O    17.09266  -14.99092    2.19304
      H1    16.83097  -15.88250    2.51563
       H    13.26726   -9.83148    8.48081
       O    14.04261   -9.67673    7.98621
      H1    14.17932   -8.72298    7.91224
       H     8.88037  -16.89360    1.51931
       O     8.07696  -17.30564    1.86786
      H1     7.49153  -17.07810    1.14475
       H    17.30937  -14.39451   -4.03014
       O    16.82674  -13.55473   -4.17218
      H1    16.99129  -13.01299   -3.38335
       H    12.82526  -14.77945    1.03891
       O    13.35719  -15.18451    1.68808
      H1    13.10456  -16.04276    1.42170
       H    15.58539   -8.04440   -1.60807
       O    14.62963   -7.89926   -1.48798
      H1    14.44574   -8.67911   -1.00940
       H    13.89290  -13.66069   -4.38819
       O    13.22207  -13.64807   -3.64834
      H1    13.25521  -12.83453   -3.12276
       H     9.52196   -9.35773    5.44338
       O    10.11668   -9.98667    4.99758
      H1    10.82556   -9.32911    4.76821
       H    10.34185   -9.75775    2.11009
       O    11.13667  -10.09051    1.68966
      H1    10.68028  -10.50278    0.95642
       H    18.74457  -17.79134   -0.73393
       O    18.61195  -18.47507   -0.02539
      H1    19.37362  -18.34155    0.61907
       H     7.75027  -13.60423    5.68995
       O     7.22565  -12.82246    5.47057
      H1     7.64297  -12.37023    4.73957
       H    15.79337  -16.15573    8.66068
       O    16.04468  -16.70155    9.40593
      H1    15.37595  -17.40505    9.33632
       H    15.24102   -7.78372    2.98032
       O    15.43476   -6.86478    3.14324
      H1    15.84917   -6.57111    2.28949
       H    11.96126  -13.88017    9.47335
       O    12.59232  -14.60249    9.76382
      H1    13.28740  -14.15613   10.27613
       H    13.62082  -14.22120    4.65717
       O    14.34245  -14.73259    4.21836
      H1    13.99435  -14.81733    3.27566
       H    12.42777   -7.71195    5.51629
       O    12.24199   -8.28204    4.72471
      H1    11.89323   -7.56893    4.14666
       H    13.40082  -19.23214    4.55772
       O    13.53062  -18.27052    4.32465
      H1    14.31640  -18.10066    4.92142
       H    17.83309  -19.61045    5.54090
       O    17.96916  -18.63194    5.65516
      H1    17.03581  -18.42927    5.86938
       H     9.47565  -12.52491    6.40356
       O    10.05886  -12.00909    6.92864
      H1    10.22561  -11.29917    6.25626
       H    14.14478  -14.76956    7.04432
       O    13.88327  -15.63098    7.34816
      H1    13.34402  -15.26341    8.11188
       H    15.36155  -19.28349   -2.67876
       O    14.78534  -18.49681   -2.71371
      H1    14.75402  -18.23627   -1.74750
       H    15.97753  -15.10267   -1.21986
       O    15.57333  -15.38051   -0.40294
      H1    14.60015  -15.49659   -0.73352
       H    12.70461  -17.35370    7.33202
       O    12.37327  -18.27085    7.42917
      H1    12.09616  -18.43391    8.32676
       H     9.52863  -13.30744   -2.85409
       O     9.12572  -13.01838   -2.04539
      H1     8.18271  -13.17702   -2.22717
       H    11.18322  -15.45149    3.86825
       O    11.25509  -14.59376    4.25734
      H1    11.61667  -14.11661    3.51151
       H     6.12680  -16.82383    3.86367
       O     6.75883  -17.18602    4.46840
      H1     7.31201  -17.62808    3.88163
       H    10.94888  -17.48868    2.83381
       O    10.83287  -17.49312    3.79795
      H1    11.76256  -17.54373    4.13815
       H     9.47760  -10.21208   -0.95481
       O     9.94013  -10.93110   -0.48491
      H1     9.98713  -11.58233   -1.20001
       H    10.12048  -12.82065    9.98559
       O    10.77291  -12.41733    9.41865
      H1    10.27732  -12.08017    8.69605
       H    13.55379  -12.01398    6.02075
       O    13.17916  -12.79866    6.44017
      H1    12.37897  -12.46950    6.82728
       H    13.28856  -10.91204   10.25715
       O    13.54088  -11.87040   10.34537
      H1    12.62089  -12.19384   10.20943
       H    18.61726  -15.24725    1.34245
       O    19.41710  -15.05127    0.79200
      H1    19.98054  -14.69707    1.52075
       H    10.59169  -19.55882    5.77167
       O    10.03263  -19.82339    6.48904
      H1     9.57282  -19.00478    6.79843
       H     8.64228  -14.21102    0.64634
       O     9.49934  -14.56018    0.31401
      H1     9.38274  -14.28744   -0.62348
       H    15.45262  -18.34020    0.54650
       O    14.80013  -17.81103    0.02394
      H1    15.17630  -16.91951    0.00575
       H     8.96981  -16.86860   10.36406
       O     9.67343  -16.30222    9.95205
      H1     9.91371  -16.88349    9.22548
       H    15.44993  -11.94613    8.15963
       O    16.27014  -12.45552    8.22065
      H1    16.96013  -11.76140    8.14446
       H    13.59273   -9.77657    0.70148
       O    14.09136  -10.00925   -0.07878
      H1    14.91367  -10.27279    0.33249
       H    18.97143  -12.84755    6.95662
       O    18.90908  -13.64411    6.43745
      H1    18.19116  -13.62241    5.79347
       H    19.28551  -15.77438   -0.88916
       O    18.98842  -16.27605   -1.71087
      H1    19.89794  -16.37676   -2.05495
       H    13.30571   -8.86176    3.39967
       O    14.11629   -9.27381    2.98792
      H1    14.17039  -10.04802    3.48873
       H    17.10264  -11.25509    0.78598
       O    16.68204  -10.36478    0.64962
      H1    17.37470   -9.76983    0.82828
       H    17.15876  -13.91496    3.56735
       O    16.86098  -13.31229    4.30582
      H1    15.89637  -13.60440    4.30805
       H     9.23384  -18.56077   -1.52645
       O     9.39720  -17.71300   -1.09360
      H1    10.10151  -17.38849   -1.72554

