180
frame 9 | Written by MDAnalysis XYZWriter (release 2.4.3)
       H     9.97185  -14.86473   15.54298
       O     9.48758  -15.68021   15.86513
      H1     9.47172  -15.51937   16.81092
       H     9.64287   -8.81158    8.27032
       O     9.67737   -7.86227    8.13175
      H1     8.99272   -7.47394    8.68159
       H    11.85711  -14.16045   18.26894
       O    11.12196  -13.88837   18.83243
      H1    11.65198  -13.38378   19.41607
       H    12.23056   -1.75287   15.39970
       O    12.77123   -2.38599   15.88501
      H1    13.04036   -1.83889   16.67143
       H    10.11480   -3.91096   14.46025
       O    10.38146   -4.80891   14.88932
      H1    10.77673   -4.68709   15.73870
       H    12.16797   -5.10119   14.71136
       O    13.04190   -5.55615   14.81288
      H1    12.81941   -6.51943   14.77955
       H     7.85638  -10.56181    9.87497
       O     7.91769  -10.79455    8.89805
      H1     8.51907  -11.54815    8.93567
       H    18.91161   -7.93602   12.00020
       O    19.05794   -7.33002   11.27182
      H1    18.16937   -7.21196   10.92670
       H    15.52179  -12.88346   10.98627
       O    15.65944  -13.62188   11.56909
      H1    16.37959  -14.10405   11.15103
       H    14.48310  -11.96044   18.22947
       O    14.22016  -12.05794   17.33782
      H1    14.98230  -11.69392   16.84357
       H    18.81852   -5.12039   13.22122
       O    17.93356   -5.29137   13.70474
      H1    17.39332   -5.85967   13.07894
       H     8.96773   -2.47409   18.99283
       O     9.30195   -3.40279   19.05909
      H1     9.78452   -3.46910   18.19946
       H    16.99294  -14.00888   16.66752
       O    17.05819  -13.67469   17.55165
      H1    16.93841  -12.72759   17.45127
       H    12.07146   -9.78436    8.56618
       O    11.31000  -10.33596    8.40335
      H1    10.84370  -10.69694    9.16869
       H    13.98493  -11.61787   12.85586
       O    14.09855  -11.44350   13.84876
      H1    14.17309  -12.32898   14.09431
       H     6.31252  -12.94117   13.43835
       O     6.41856  -12.33080   12.67045
      H1     6.36557  -13.05274   11.90850
       H     4.31037   -8.33161   11.50317
       O     5.10031   -8.73741   11.90771
      H1     5.44330   -8.02149   12.45934
       H     6.48333   -7.55318   16.31887
       O     6.99711   -8.20201   15.80999
      H1     6.52797   -9.01438   16.06456
       H     8.93823   -8.15131   16.43977
       O     9.83209   -7.97958   16.69025
      H1     9.63225   -7.56882   17.55405
       H     8.70537   -4.47117   15.83413
       O     8.09706   -4.07753   16.47329
      H1     8.55708   -4.32159   17.33794
       H    11.91295   -2.11234   12.21045
       O    12.70144   -1.77130   11.76482
      H1    13.31410   -1.72369   12.52813
       H    10.76532  -15.55053   12.31140
       O    11.66563  -15.67157   12.40469
      H1    12.01043  -15.23809   11.64002
       H    10.18503   -5.78263   10.83187
       O     9.47474   -6.46044   10.91176
      H1     9.89110   -7.29624   10.72876
       H    12.20801   -4.74761   10.43811
       O    11.55991   -4.65924   11.14735
      H1    11.00006   -3.90779   10.95657
       H    17.15928   -7.87463   17.40501
       O    17.21227   -8.71451   17.86558
      H1    16.42032   -8.81555   18.43649
       H    13.22944  -15.18161   13.76611
       O    13.77702  -14.47719   14.19924
      H1    13.15841  -14.24048   14.88210
       H    15.44224   -7.20161   14.17378
       O    15.65257   -7.23891   13.23479
      H1    15.25897   -6.41277   12.91420
       H    17.16765   -8.60236   13.60292
       O    18.08881   -8.88528   13.57803
      H1    18.05830   -9.86324   13.73411
       H     7.93085   -9.74562   12.12094
       O     8.09487   -9.43646   11.24657
      H1     7.45664   -8.74180   11.24872
       H    10.16286  -12.97021   13.86426
       O    10.87245  -13.59611   14.17231
      H1    11.20545  -14.10530   13.40468
       H     8.92920  -11.88866   17.05043
       O     8.31445  -12.00394   16.28518
      H1     7.38226  -11.69663   16.59651
       H    13.67745   -4.87510   13.39384
       O    14.04132   -4.41578   12.65591
      H1    13.24588   -4.37763   12.06106
       H    15.83124   -4.05648   10.62766
       O    15.80424   -4.34610    9.73928
      H1    15.98340   -5.29046    9.76668
       H    13.39325  -14.52726   10.17066
       O    12.47702  -14.82738   10.01444
      H1    12.58055  -15.75877    9.75493
       H     5.19061  -10.41057   15.82103
       O     5.77844  -10.94227   16.41780
      H1     5.34174  -11.06400   17.29068
       H    12.17788   -3.98085   16.83454
       O    11.40345   -4.29099   17.32637
      H1    11.88759   -4.92064   17.91447
       H    17.29036  -10.87708   15.80849
       O    16.55780  -10.95547   16.43335
      H1    16.82218  -10.16137   17.06231
       H    16.18644  -11.15321   13.43544
       O    17.05551  -11.62500   13.54820
      H1    17.11339  -12.07932   12.69317
       H    13.99484   -8.26437   10.34285
       O    14.62946   -8.65710   10.94938
      H1    14.52592   -8.12818   11.80039
       H    11.57127   -8.11001   15.78960
       O    12.43966   -8.11796   15.30979
      H1    12.24603   -8.95777   14.76135
       H    17.58618   -5.30797   16.80921
       O    17.95177   -6.15138   16.51576
      H1    17.96255   -6.09007   15.49078
       H     8.71835  -11.74341   14.57526
       O     8.89394  -11.70750   13.64843
      H1     8.01835  -11.95313   13.27337
       H     6.85603   -6.43925    8.88061
       O     6.93665   -7.22629    9.42480
      H1     7.78033   -7.00792    9.87326
       H    11.15358   -9.28475   12.34188
       O    10.81181   -9.17236   11.46264
      H1     9.91230   -9.57667   11.53097
       H    12.66134   -7.27338    8.36580
       O    12.77636   -7.76077    9.20982
      H1    12.06180   -7.38099    9.74016
       H    15.90469   -7.50697   10.43518
       O    16.62823   -6.93232   10.10028
      H1    16.78122   -7.38399    9.20774
       H    16.61279  -11.36352    9.62789
       O    16.21184  -11.16435   10.47389
      H1    15.77837  -10.26451   10.34386
       H    12.85996   -9.37121   16.81365
       O    12.53896   -9.92210   17.54077
      H1    13.11707  -10.71437   17.56921
       H     9.83719  -13.25125   10.37497
       O    10.22944  -12.49583    9.86556
      H1    10.54947  -12.88967    9.04477
       H    16.76422  -13.20150   14.31426
       O    16.51020  -14.10144   14.65377
      H1    15.62438  -14.20953   14.34913
       H    13.21634  -10.52369   11.05009
       O    13.20000  -11.52924   11.07508
      H1    12.28027  -11.69477   10.99793
       H    14.45292   -6.03350   16.02989
       O    15.07584   -6.74427   16.05527
      H1    14.47013   -7.49836   16.00890
       H    10.98400  -10.93592   17.98469
       O    10.23171  -11.41727   18.39425
      H1    10.63405  -12.26766   18.51469
       H     6.83557   -5.88907   13.39296
       O     6.35745   -5.03806   13.45765
      H1     5.87729   -5.17011   12.61700
       H    12.10613  -11.06578   14.34076
       O    11.50382  -10.36244   14.01246
      H1    10.70227  -10.84809   13.92016
       H     9.57581   -1.75595   14.72323
       O     9.92337   -2.31688   14.00286
      H1     9.02415   -2.44852   13.66190
       H    15.12350  -10.09965   19.29416
       O    14.91363   -9.16061   19.16993
      H1    14.02810   -9.10477   19.37126
       H    14.59473  -15.06906   18.93646
       O    15.30964  -14.57739   19.39460
      H1    15.72695  -14.09201   18.64979
       H    13.87132  -15.10779   16.95271
       O    13.09563  -14.64924   17.26200
      H1    13.44338  -13.72011   17.17678
       H     8.53617   -6.92918   13.01345
       O     7.67380   -7.38919   13.16694
      H1     7.76104   -7.66220   14.08105

