180
frame 2 | Written by MDAnalysis XYZWriter (release 2.4.3)
       H    -1.22947    1.32171   14.13006
       O    -1.54843    2.16297   14.45288
      H1    -1.03526    2.81933   13.99045
       H     0.41918    5.31336    6.28116
       O     0.80824    4.50614    5.92466
      H1     0.81485    4.62221    4.98567
       H    -4.08590    8.01031    9.59521
       O    -3.55405    7.25887    9.30348
      H1    -3.03236    7.72367    8.59570
       H    -4.93435    5.13213   16.56645
       O    -4.89862    5.32223   17.51751
      H1    -4.07646    4.88912   17.85362
       H    -1.85572    5.11153   18.67916
       O    -1.89127    5.10425   17.72808
      H1    -1.33025    4.35912   17.47908
       H   -10.08824    7.78110   14.19738
       O    -9.51764    7.76686   13.44701
      H1    -8.58780    7.81146   13.80987
       H     1.34730    0.90891    6.12719
       O     1.26834    0.46931    7.02053
      H1     0.98316    1.20024    7.60118
       H     0.38012    3.60146   16.25718
       O    -0.34295    3.18414   16.73926
      H1    -0.66589    2.65331   15.96526
       H    -3.79762   11.16924   12.58933
       O    -2.98790   11.59878   12.71505
      H1    -2.54352   11.62421   11.85357
       H     2.88450    9.85646   12.42218
       O     3.01993   10.77843   12.62049
      H1     2.70311   10.73085   13.53171
       H    -3.34156    8.01381   18.22009
       O    -3.03838    7.97860   19.12471
      H1    -3.08819    7.02679   19.39627
       H     4.05553    8.32028    9.45328
       O     3.92833    8.61940   10.36993
      H1     4.01862    7.88956   10.97266
       H    -1.35233    3.90395   10.01381
       O    -1.16003    3.54094    9.13618
      H1    -1.82790    4.07697    8.68949
       H    -1.94783    0.22231   16.50224
       O    -1.36234   -0.43781   16.90301
      H1    -0.97130   -0.00935   17.68721
       H    -6.31045    8.50531    7.67020
       O    -6.61547    9.38305    7.29460
      H1    -7.48902    9.17925    7.00552
       H     0.66157    3.39506    8.46480
       O     1.52436    3.17750    8.70340
      H1     1.44928    3.70320    9.53378
       H    -4.61782    4.35957    8.53052
       O    -3.73283    4.72211    8.35911
      H1    -3.87348    5.65356    8.68648
       H     4.08227    1.98468    7.32667
       O     4.07449    2.83146    7.85053
      H1     3.14486    2.87594    8.13875
       H    -1.00531   -0.56100    7.83605
       O    -1.34332   -1.21354    8.50978
      H1    -1.56410   -0.60260    9.22584
       H     3.78227    5.92487   11.74122
       O     4.08735    6.68747   12.23684
      H1     3.33950    6.89291   12.78936
       H     1.37584    0.12417   11.41317
       O     2.02746   -0.65843   11.36439
      H1     1.63196   -1.26622   10.66646
       H    -3.87634    2.95465   13.20296
       O    -4.56621    2.27858   13.55415
      H1    -4.03937    1.50187   13.74568
       H    -6.30950    3.57676   10.80656
       O    -5.71905    3.04096   10.23832
      H1    -6.39713    2.50122    9.77570
       H     1.35382    5.18546   11.17572
       O     1.94007    4.44026   11.09409
      H1     1.93628    4.07209   12.04511
       H    -8.91500    2.98940   14.94754
       O    -8.26808    2.81886   14.24723
      H1    -7.78698    2.08699   14.71599
       H    -6.14649   10.90055   14.85861
       O    -5.95679   10.15342   15.44632
      H1    -6.32378    9.47294   14.88330
       H    -6.67288    7.34157   13.64252
       O    -6.95156    7.94626   14.33236
      H1    -7.22904    7.23994   14.99904
       H    -4.29870    1.15854    8.17165
       O    -4.77187    1.45006    7.39594
      H1    -4.92308    0.60170    6.99866
       H     0.26549    7.12449   15.79511
       O     0.04724    7.23437   14.88729
      H1    -0.93456    6.97760   14.84987
       H     1.01362    9.70567   15.55510
       O     0.34727    9.89353   14.90348
      H1     0.06218    8.98443   14.70208
       H     0.84403    5.40929   15.27449
       O     1.44607    4.66993   15.34917
      H1     2.25450    5.06800   15.72076
       H    -9.22217    6.27685   12.50235
       O    -8.75317    5.78880   11.77310
      H1    -8.60686    4.92288   12.17916
       H    -2.15477    7.54900   10.45372
       O    -1.21543    7.31366   10.74285
      H1    -0.84243    7.29928    9.81843
       H    -8.70298    2.48866   12.48222
       O    -8.61394    2.40847   11.50707
      H1    -9.55153    2.51565   11.30548
       H    -0.12448    5.79232   17.72414
       O     0.59547    6.42696   17.67648
      H1     1.19312    6.00898   18.30438
       H    -6.13881    9.70126   10.80441
       O    -5.25114    9.31012   10.78741
      H1    -4.73492    9.97366   10.38796
       H    -1.96085    3.74474    6.34314
       O    -1.55893    3.33790    5.55110
      H1    -0.65333    3.67199    5.67965
       H    -7.01153    5.80175    7.25298
       O    -7.20923    6.56510    7.80264
      H1    -8.03215    6.27709    8.19727
       H    -0.88129   -0.46008   13.80537
       O    -0.12701   -0.12788   14.23649
      H1    -0.15632   -0.58793   15.06360
       H    -5.33478    4.08577   14.39680
       O    -5.85364    4.38159   15.15742
      H1    -6.64058    3.88819   15.06115
       H    -5.73963    1.03055   11.99125
       O    -5.74067    0.15468   11.59227
      H1    -6.20884    0.45379   10.77324
       H    -7.40227    4.47752   19.03354
       O    -7.34179    4.40711   18.07314
      H1    -6.43982    4.65942   17.90320
       H    -3.41584    5.62713   14.04999
       O    -3.62639    5.01882   13.30441
      H1    -4.49310    5.34944   13.06138
       H     4.06328    0.88194   13.11606
       O     3.76144    1.53611   12.45364
      H1     3.32529    0.92731   11.86656
       H    -3.85069    0.17796   15.56510
       O    -3.65160    0.92482   16.16657
      H1    -4.01977    1.64281   15.66503
       H     0.87536    2.26095   11.63205
       O     0.57919    1.49488   11.05718
      H1     0.80768    1.94479   10.21128
       H     0.43658    7.23414    7.44412
       O    -0.09412    6.41108    7.74106
      H1    -0.99921    6.70739    7.52105
       H    -2.17876    6.13462   16.17716
       O    -2.40772    6.45945   15.26032
      H1    -2.76381    7.33999   15.45094
       H    -2.70623   11.04237    9.25234
       O    -3.01750   10.29737    8.67752
      H1    -3.80330   10.73989    8.41330
       H    -2.27681    5.01342   12.16453
       O    -1.64875    4.80910   11.41418
      H1    -1.38979    5.68616   11.15571
       H    -5.71952    7.16268   11.69292
       O    -6.12087    6.38185   12.09195
      H1    -7.08318    6.40413   11.78932
       H    -2.53134    0.50647   10.65140
       O    -1.80404   -0.13474   10.93910
      H1    -1.04328    0.45793   11.17524
       H    -2.28022    8.95060    7.82497
       O    -2.08730    8.15715    7.23384
      H1    -1.85476    8.65925    6.47999
       H     0.64182    7.52057   11.51359
       O     1.36203    7.65052   12.19270
      H1     0.97844    7.37786   12.99096
       H    -2.62645   -0.70081   12.55174
       O    -3.00169   -0.46555   13.41750
      H1    -3.71896   -1.09456   13.50388
       H    -2.38648   11.24771   14.59701
       O    -2.14322   11.09750   15.51033
      H1    -1.16958   10.73914   15.41616
       H    -3.37276    9.36141   16.04377
       O    -3.78162    8.70626   16.61831
      H1    -4.71829    8.69371   16.44244
       H     2.31152    2.18590   13.48774
       O     1.66343    2.91453   13.23634
      H1     1.81379    3.52937   13.95370
       H    -2.61553    2.37229    9.85262
       O    -3.31745    1.73148   10.00810
      H1    -4.12969    2.30328   10.11624
       H     2.29168    9.20380    9.98137
       O     1.44717    9.71349    9.66133
      H1     1.89535   10.21070    8.90555

