180
frame 11 | Written by MDAnalysis XYZWriter (release 2.4.3)
       H    -7.66179    1.58704   11.73979
       O    -7.29505    0.80550   12.25876
      H1    -6.74335    1.33889   12.87055
       H   -16.23416    5.20625   19.17130
       O   -15.37990    5.78575   19.24632
      H1   -15.17322    6.17446   18.37034
       H   -10.25246    6.27504   12.80253
       O   -10.45803    5.77842   13.60175
      H1   -11.19919    5.25156   13.35239
       H   -10.08190   14.51179   15.84172
       O    -9.50935   13.77773   16.07062
      H1   -10.08473   13.33340   16.66992
       H    -8.81007   11.00078   13.52522
       O    -9.45348   11.70599   13.54938
      H1    -8.87079   12.53117   13.46694
       H   -10.74907   -0.38595   12.47591
       O   -11.07146   -0.86166   13.24851
      H1   -10.77282   -0.56650   14.09080
       H   -12.13064   14.68460   18.66034
       O   -11.27533   14.24255   18.56825
      H1   -10.66673   14.97366   18.74839
       H   -12.29180    1.33141   18.07294
       O   -11.32371    1.34462   17.80051
      H1   -10.79778    1.09010   18.53937
       H   -13.60049   11.97797   16.74658
       O   -13.85955   12.47171   15.93348
      H1   -13.03687   12.52024   15.38547
       H   -11.12788    1.68534   14.43766
       O   -10.96138    2.55620   14.16518
      H1   -11.32538    3.10272   14.85946
       H   -15.51875    2.48662   13.44602
       O   -16.02277    3.01241   14.07775
      H1   -15.71452    3.94824   13.93054
       H    -8.55353    5.55523   18.63337
       O    -9.21168    5.11157   19.12823
      H1    -9.52225    5.71667   19.82813
       H    -3.21151    2.18964   17.25311
       O    -3.56398    3.07841   17.47314
      H1    -3.05924    3.75925   16.96608
       H    -9.35369    7.11058   10.95306
       O    -9.73715    7.49215   11.73237
      H1    -9.24647    8.31782   11.86730
       H   -17.51624    6.24163   16.46959
       O   -16.54892    6.23626   16.57889
      H1   -16.26896    6.32208   15.67796
       H   -11.48036    7.43580   17.12435
       O   -12.16785    7.71168   17.72637
      H1   -12.11334    7.09169   18.46276
       H   -16.06241    7.85466   17.82213
       O   -15.82052    8.68644   18.24871
      H1   -15.81930    9.37643   17.51885
       H   -13.17047    7.55563   15.53490
       O   -13.16464    7.30095   14.59040
      H1   -13.10396    6.35554   14.57740
       H    -7.59628   -0.33426   15.66902
       O    -7.03356    0.34361   16.13726
      H1    -6.92679    0.95596   15.45399
       H   -14.50505   10.48453   15.17065
       O   -14.93619    9.61472   15.30788
      H1   -14.39708    9.06178   14.70319
       H    -7.39089   10.47444   16.83486
       O    -7.62793    9.70265   17.29415
      H1    -7.47415    9.85786   18.18600
       H    -7.64668    3.82661   11.17926
       O    -8.31089    3.27363   10.77247
      H1    -9.08740    3.52773   11.26054
       H   -17.43850    9.06827   18.82315
       O   -18.35895    9.03792   19.17439
      H1   -18.98413    9.20748   18.47112
       H    -0.19709    9.26526   18.98431
       O    -1.14186    9.46753   18.97375
      H1    -1.57599    9.25930   19.81885
       H    -5.59735    5.23327   18.39446
       O    -5.53376    4.47373   18.96208
      H1    -4.98499    3.86241   18.40644
       H   -13.81657    2.30960   19.14861
       O   -13.80101    1.38471   18.90221
      H1   -14.03037    0.83506   19.73072
       H   -13.63955    4.31150   15.85144
       O   -12.71751    4.44548   15.50003
      H1   -12.16713    4.58288   16.23732
       H   -12.99360    9.83474   17.93514
       O   -12.62325   10.70956   17.80264
      H1   -11.85007   10.47662   17.18427
       H   -16.39215    6.15040   13.21542
       O   -15.63965    5.77623   13.74373
      H1   -14.95350    6.45690   13.65193
       H   -10.32318    8.33971   15.74578
       O   -10.07802    7.43660   15.89951
      H1   -10.26566    6.95781   15.11024
       H    -7.35155    7.02661   14.77656
       O    -6.98712    7.06512   13.85307
      H1    -6.00807    7.05065   13.94175
       H   -16.75779    0.84245   18.87448
       O   -16.98021    0.65190   19.80390
      H1   -17.39857   -0.20460   19.63715
       H    -8.36282   -1.51933   18.91667
       O    -8.87981   -1.62091   18.14595
      H1    -8.93380   -0.87204   17.54788
       H   -10.18018   10.95977   15.58615
       O   -10.41094   10.29145   16.22095
      H1    -9.65065   10.32262   16.82920
       H   -11.92570    2.65577   11.12303
       O   -11.16103    2.90412   11.64168
      H1   -11.12928    2.61074   12.56456
       H    -6.27558    6.08473   10.92881
       O    -6.98448    5.77396   11.49755
      H1    -6.82861    6.20935   12.34530
       H    -2.06035    8.34155   18.03192
       O    -2.57835    8.01297   17.31680
      H1    -2.05589    8.32961   16.56754
       H    -3.58771   -0.10987   17.09994
       O    -2.79276    0.30068   16.81176
      H1    -2.33215   -0.46224   16.38452
       H    -1.64210    5.60037   15.87347
       O    -2.41345    5.47729   16.37288
      H1    -2.53567    6.36471   16.68495
       H    -1.58879    3.28471   19.06237
       O    -0.69885    3.37187   18.66934
      H1    -0.23133    3.86326   19.34489
       H    -7.30586    8.67442   12.72081
       O    -7.92601    9.42684   12.68096
      H1    -7.50724   10.18490   12.25757
       H    -8.86373    3.66703   14.92943
       O    -8.08326    3.71626   15.53860
      H1    -8.04444    4.68086   15.70376
       H    -2.71871   11.14121   18.25409
       O    -3.52368   11.31146   17.81065
      H1    -3.30573   11.10465   16.91185
       H   -12.98701    8.06440   11.27103
       O   -12.12600    8.43855   10.96296
      H1   -11.34318    8.05761   11.40413
       H    -8.31224   -2.73572   15.13793
       O    -7.70422   -2.78106   15.92143
      H1    -8.17646   -2.39682   16.67942
       H   -15.96988    4.59586   16.67319
       O   -15.30118    3.81286   16.50022
      H1   -15.55109    3.39762   15.61101
       H   -11.31789    3.23942   17.83414
       O   -11.55012    4.14615   18.08195
      H1   -10.71720    4.45945   18.43230
       H    -4.13399    7.09057   14.36119
       O    -3.75480    7.14090   13.47845
      H1    -3.40224    8.03623   13.40824
       H   -10.96898   12.45158   19.20146
       O   -10.29104   11.96688   19.71959
      H1   -10.45222   11.05600   19.61424
       H   -16.10679    2.06768   16.92478
       O   -15.99301    1.11549   17.22347
      H1   -15.22116    1.07526   17.82267
       H    -5.39879   -0.61058   18.57901
       O    -5.31162   -0.98237   17.66946
      H1    -6.02892   -0.51052   17.25628
       H    -4.99012    2.37648   14.40992
       O    -5.75474    2.72900   13.87976
      H1    -6.32733    3.21319   14.53237
       H   -15.28986    0.20402   15.74104
       O   -15.39496   -0.62412   15.27209
      H1   -14.66559   -0.70970   14.56150
       H    -5.93634   12.06430   17.56001
       O    -6.62139   12.11734   16.86827
      H1    -7.13936   12.91177   17.08506
       H    -7.24433    6.71869   17.20088
       O    -7.79419    6.36105   16.44999
      H1    -8.59092    6.90015   16.34136
       H    -5.83810    8.56977   16.10054
       O    -5.06784    8.04774   15.86805
      H1    -4.32195    8.34365   16.46010
       H    -5.38179    7.33924   17.40030
       O    -5.67500    7.11062   18.28476
      H1    -5.25559    7.64237   18.94220
       H   -17.97830    5.28713   20.02993
       O   -17.74274    4.79731   19.22320
      H1   -18.45356    5.10464   18.61733
       H   -10.93263   -0.34735   16.85920
       O   -10.67560   -0.97697   16.14781
      H1   -11.34966   -1.64473   16.14707
       H    -5.98190   14.30377   18.61972
       O    -5.42906   13.72759   19.13876
      H1    -6.14839   13.13977   19.50373

