180
frame 4 | Written by MDAnalysis XYZWriter (release 2.4.3)
       H    -4.49317    6.55413   10.74592
       O    -3.68022    6.76469   10.22699
      H1    -4.00360    7.45800    9.63611
       H    -2.51849   15.64470    5.90667
       O    -2.06545   14.99041    5.36751
      H1    -1.24434   14.69905    5.88443
       H    -0.82250   12.01137   11.87972
       O    -0.53778   11.58336   11.08911
      H1     0.18530   11.06649   11.38177
       H    -8.36157   15.93049   14.96339
       O    -8.98158   16.64993   14.78037
      H1    -9.38640   16.26336   13.93436
       H    -3.30121   11.82926   12.32717
       O    -2.51784   12.20258   12.80738
      H1    -2.42650   13.17954   12.64246
       H    -3.01597   16.70243   10.08929
       O    -3.49194   17.09300   10.83102
      H1    -2.78077   17.49056   11.32688
       H    -6.55687    7.98443    7.55506
       O    -6.12453    8.82825    7.35586
      H1    -6.77756    9.44671    7.72683
       H    -1.21717   11.60134    8.07871
       O    -2.08277   11.62308    8.62421
      H1    -1.71031   11.47375    9.50550
       H    -3.77221   13.34659    5.37220
       O    -4.27006   12.54279    5.57144
      H1    -4.70348   12.84856    6.36135
       H    -6.77559   17.57211    6.88852
       O    -5.88591   17.12303    6.92446
      H1    -5.46853   17.35416    6.12857
       H    -6.85500   16.01195   11.90643
       O    -6.66420   15.13051   12.28574
      H1    -5.81503   15.24784   12.75796
       H    -0.34091   15.58191   15.16373
       O     0.62446   15.84224   15.01094
      H1     0.97915   15.12259   14.46689
       H    -9.21122   10.97473    8.44705
       O    -8.62539   10.22330    8.22238
      H1    -9.45238    9.57368    8.19723
       H   -11.24409   15.68226    9.82529
       O   -10.43264   15.57789    9.27184
      H1   -10.39875   14.64534    9.07130
       H    -4.42612   12.24952   17.93519
       O    -3.55324   11.81061   17.97607
      H1    -3.32987   11.95724   17.03598
       H   -10.49362   12.18766    9.69333
       O    -9.98363   12.57627    8.95336
      H1   -10.76865   12.59587    8.33699
       H    -8.45107   12.13258   11.75699
       O    -8.83008   12.51923   12.52042
      H1    -9.26046   11.68610   12.78569
       H    -6.47596   10.62179   15.89242
       O    -6.39205    9.65877   16.09329
      H1    -6.78281    9.18304   15.32967
       H    -9.87413   10.15908   14.70706
       O    -9.99142   10.34614   13.76622
      H1    -9.75666    9.45155   13.47143
       H    -7.04038   15.51019    9.24431
       O    -6.69494   15.12276    8.46343
      H1    -6.27153   15.86761    8.02785
       H    -5.99604   16.58952   18.07251
       O    -6.33019   16.07076   17.28431
      H1    -5.77024   16.52010   16.65450
       H    -7.67634   14.13350   13.88997
       O    -7.89368   14.13467   14.83881
      H1    -8.78533   13.78475   14.79165
       H    -9.20584   14.61261   12.18080
       O    -9.67233   15.46312   12.38778
      H1   -10.59639   15.27062   12.33256
       H     1.44319   15.22478    5.84779
       O     0.73507   14.59469    6.05489
      H1     0.67555   14.07525    5.23959
       H    -9.58459   15.63072    7.82707
       O    -9.02849   15.52344    6.97704
      H1    -8.16678   15.47509    7.38106
       H     0.04164    9.93339    7.34658
       O     0.08144   10.91669    7.08010
      H1     1.02691   11.04869    7.15182
       H    -2.33778   14.61346   15.57171
       O    -1.76155   14.68704   16.34536
      H1    -1.84967   13.71177   16.60352
       H    -0.66792   18.28749   11.96056
       O    -1.35558   17.67444   12.26265
      H1    -1.50440   17.97893   13.16128
       H    -1.85087    7.33407   10.76641
       O    -0.93342    7.04615   10.82940
      H1    -0.49218    7.70445   10.28325
       H    -7.90265   11.05420    9.92201
       O    -7.43765   10.87216   10.77364
      H1    -6.82190   11.58146   10.84966
       H    -4.60033   14.01719   14.45351
       O    -4.44657   14.83842   14.00013
      H1    -4.52485   15.42931   14.77155
       H   -11.02816   11.88787   12.08169
       O   -11.28299   11.97760   11.14501
      H1   -12.05884   11.42685   11.00126
       H     1.23724   14.78019   11.39439
       O     0.91017   15.60451   11.63889
      H1    -0.03767   15.40410   11.77855
       H    -5.84676   13.52768    8.47412
       O    -5.65815   12.63526    8.04825
      H1    -5.16337   12.13804    8.70013
       H    -6.32666    9.64466   11.00661
       O    -5.70706    8.88310   10.84669
      H1    -4.93811    9.47244   10.52179
       H    -4.55813   13.69537   10.78170
       O    -5.15338   13.15924   11.30209
      H1    -5.57374   13.90035   11.77768
       H    -5.45072   12.87591   15.73253
       O    -6.02659   12.32392   15.23426
      H1    -6.80888   12.96376   15.13865
       H    -8.02364   17.49145   11.69592
       O    -7.86176   17.30575   10.77640
      H1    -8.69920   16.87463   10.57135
       H    -2.41706   13.18380    9.30624
       O    -2.47580   14.10486    9.69543
      H1    -1.83397   14.52562    9.08604
       H    -4.22776   17.59854    7.41215
       O    -3.25935   17.53613    7.34361
      H1    -2.93008   18.16779    8.00841
       H    -8.86747   17.55552    6.94793
       O    -8.41227   18.37430    6.68599
      H1    -8.48494   19.03441    7.43464
       H    -5.86205   12.09646    4.64869
       O    -6.78048   11.72589    4.56612
      H1    -7.20969   12.25714    5.27834
       H     2.33034   12.56556   11.36008
       O     1.89115   12.96441   10.62956
      H1     1.02101   12.60545   10.76949
       H    -5.06868   14.77732   17.08820
       O    -4.51136   14.06435   16.75146
      H1    -3.76238   14.08890   17.34212
       H     1.40283   18.13996    9.09812
       O     0.62120   17.86820    9.70436
      H1     0.99987   17.06553   10.11043
       H    -2.02967   14.62780   11.22535
       O    -1.58167   14.82167   12.05714
      H1    -1.84945   15.79990   12.02905
       H    -0.33248   16.17154    8.40972
       O    -0.77609   15.35474    8.25519
      H1    -0.24221   14.99370    7.49486
       H    -8.02747   11.70548    6.73646
       O    -8.51654   12.49069    6.51760
      H1    -8.23753   13.10103    7.20845
       H    -3.25372    9.93281    8.56823
       O    -3.72190    9.14254    8.82074
      H1    -4.41139    8.96627    8.15573
       H    -6.95098   19.00362   13.86012
       O    -7.52409   18.40113   13.37488
      H1    -7.97094   17.88812   14.05987
       H    -2.16278   17.78572    5.50805
       O    -1.64826   18.10137    4.76754
      H1    -1.96602   17.60606    3.98667
       H    -5.51492    7.35225   11.91938
       O    -5.55030    6.43213   12.29120
      H1    -6.35406    6.07102   11.87215
       H    -2.58093    8.11885    7.60607
       O    -2.04306    7.57250    6.94907
      H1    -2.05211    8.24024    6.18599
       H    -1.99723   19.41756   15.33185
       O    -2.49416   18.90829   14.66843
      H1    -2.67155   19.61117   14.03702
       H    -2.38515   11.50624   14.57427
       O    -2.45911   11.49971   15.55719
      H1    -1.58723   10.97292   15.72666
       H    -3.44640    9.77482   15.41141
       O    -3.78408    8.88730   15.40421
      H1    -4.72831    9.17582   15.65105
       H    -6.63383   18.53938   10.83976
       O    -5.76590   18.96053   10.69021
      H1    -5.08230   18.24079   10.64837
       H    -2.92952   11.62265    4.48018
       O    -2.44210   11.09438    3.79225
      H1    -2.08736   10.33452    4.33184
       H     1.83249    8.95172   10.43096
       O     0.86944    9.21143   10.50511
      H1     0.67752    9.16795    9.60790
       H    -3.87243   17.26974   16.42025
       O    -4.54508   17.18007   15.70889
      H1    -4.45312   18.11375   15.33793

