180
frame 1 | Written by MDAnalysis XYZWriter (release 2.4.3)
       H    -0.75759    2.23725   12.28588
       O    -1.25014    2.96042   12.72371
      H1    -1.02592    3.78933   12.32566
       H     6.09292    3.28297   17.25602
       O     5.91055    4.25395   17.31433
      H1     5.51577    4.34803   18.22696
       H     4.68003    4.11798   12.78900
       O     4.75749    3.54766   12.00127
      H1     4.21283    2.77941   12.33875
       H     3.56889   12.00653   19.13380
       O     2.98655   12.59262   19.65734
      H1     3.34178   13.47476   19.58033
       H     4.92069    8.64336   14.33197
       O     4.55671    8.06049   15.02548
      H1     4.59000    7.24611   14.47683
       H    -2.29154    4.07743   18.60896
       O    -2.03257    4.35775   17.74207
      H1    -1.25779    3.82356   17.64769
       H     7.45598    2.32309   14.57276
       O     8.15404    2.70945   14.02030
      H1     7.76272    2.70645   13.13801
       H     0.29176    3.07134   16.19155
       O    -0.29409    2.39208   16.58231
      H1    -0.74621    1.99771   15.85607
       H     6.76502    4.01478   11.10166
       O     7.55979    3.74511   11.52735
      H1     7.70907    2.86398   11.15439
       H     7.73728   11.18758   17.08346
       O     7.82684   11.51787   17.98918
      H1     7.34363   10.93647   18.57370
       H     0.50157   11.41306   13.49705
       O     0.37926   11.85176   12.67030
      H1     0.88325   11.35205   12.06876
       H     2.37241    9.50656   13.10148
       O     3.14245   10.08061   12.94236
      H1     3.12897   10.67181   13.67134
       H     3.44718   10.17947   17.77205
       O     4.06033   10.95746   17.62227
      H1     3.79907   11.34116   16.74399
       H     2.75551   -1.89272   14.67611
       O     3.52329   -1.43421   15.07001
      H1     3.08289   -1.33489   15.96992
       H     4.69435    4.33958   10.39335
       O     4.78112    4.65288    9.47378
      H1     4.17397    4.09937    8.90742
       H    -3.54159    7.71536   18.49319
       O    -3.01178    7.55283   19.34075
      H1    -3.12421    6.61098   19.58745
       H     3.89828    8.18689    9.88174
       O     3.96647    9.05224   10.34093
      H1     3.87485    8.72814   11.25115
       H    -2.70526    0.43807   16.71000
       O    -1.92668   -0.09599   16.91138
      H1    -1.77871    0.10809   17.86339
       H    -0.03724    3.41440    8.52855
       O     0.63204    2.87826    9.03970
      H1     1.16874    3.58302    9.44607
       H     1.32868   -0.76770   17.42440
       O     1.22479   -1.52575   16.83891
      H1     0.97374   -2.16897   17.56004
       H    10.58730    7.50403   14.49755
       O    10.04998    7.81429   13.69526
      H1    10.70119    7.55645   13.02475
       H     3.23375    6.22030   11.69491
       O     3.48222    6.82025   12.37330
      H1     2.69336    7.23144   12.70625
       H     1.95600    0.11228   10.54999
       O     2.45528   -0.68488   10.48627
      H1     1.97130   -1.10508    9.76577
       H     0.91945    5.49039   10.93086
       O     1.75219    4.98577   10.70418
      H1     2.00730    4.57564   11.51218
       H     4.36157    5.15634   15.75006
       O     3.47612    5.04762   16.14221
      H1     3.61892    4.81655   17.09484
       H     0.17996    7.07254   15.93058
       O    -0.12825    7.32890   15.07310
      H1    -0.98054    6.90978   15.22746
       H     7.33498    8.34832   12.65539
       O     7.40829    7.39767   12.57063
      H1     8.35092    7.35805   12.85382
       H     9.52259    4.75753   11.44701
       O    10.49821    4.59147   11.48131
      H1    10.55575    3.63426   11.29591
       H     1.26455   11.23919   15.39692
       O     0.56434   10.57007   15.28748
      H1     0.90261    9.75707   15.67879
       H     0.55498    5.67492   15.08855
       O     0.94140    4.81353   15.36241
      H1     1.79009    5.09952   15.74462
       H    -1.55782    7.60683   10.29313
       O    -0.65404    7.36657   10.65418
      H1    -0.02808    7.46665    9.92066
       H     3.62623    6.64219   18.68064
       O     2.69473    6.81862   18.48345
      H1     2.38209    6.94383   19.34226
       H     7.18282    9.03409    9.40888
       O     6.30429    9.26253    9.16029
      H1     5.73282    9.01715    9.99124
       H    -0.69532    5.95665   17.84528
       O    -0.30088    6.81116   17.79621
      H1     0.55481    6.55285   18.15393
       H     2.41187    8.13751   17.33131
       O     2.38323    8.78601   16.62869
      H1     3.15874    8.50624   16.07961
       H     5.82961    0.76066   16.52340
       O     6.49284    1.45575   16.51636
      H1     7.30403    0.90324   16.45971
       H     1.44331    1.09546   18.70875
       O     0.86370    0.52071   18.25480
      H1     0.40268    1.12280   17.68596
       H    -0.86514   -0.17261   14.30074
       O     0.02354    0.17248   14.29881
      H1     0.34551   -0.33507   15.05256
       H     2.67659    2.00144   16.63130
       O     3.47679    2.44053   16.85550
      H1     3.62560    3.12093   16.17979
       H    -3.42794    5.56365   13.52973
       O    -3.86818    4.89781   13.01651
      H1    -4.61895    5.35735   12.65872
       H     8.59941    8.35055   14.60002
       O     7.99448    8.72307   15.29913
      H1     7.15605    8.47620   14.94781
       H     4.53635    0.95062   13.01244
       O     3.68251    1.13188   12.61494
      H1     3.56555    0.29119   12.11842
       H    10.05019    4.14755   15.15355
       O    10.38911    4.98791   15.44119
      H1     9.54848    5.41735   15.57061
       H     1.10123    1.77853   11.97164
       O     0.56295    1.37179   11.32012
      H1     0.72628    1.96688   10.53008
       H     0.45637    9.95966   17.69304
       O    -0.25456    9.81615   18.35790
      H1    -0.53651    8.92797   18.16351
       H    -2.38470    5.68656   15.77914
       O    -2.53108    6.33569   15.10390
      H1    -2.96112    7.10387   15.51549
       H     4.93929   -0.71665   14.59852
       O     5.71445   -0.34580   14.16486
      H1     6.34382   -1.09052   14.37090
       H     2.91224   12.62557   16.17787
       O     2.99149   11.98099   15.48912
      H1     3.25491   12.56956   14.79969
       H    -2.41893    4.95284   11.30733
       O    -1.64949    4.94774   10.75665
      H1    -1.39749    5.93179   10.82363
       H     0.35204    8.48517   12.11992
       O     0.98876    8.32216   12.79068
      H1     0.42774    8.00739   13.51194
       H    -2.27541   10.86425   14.63112
       O    -2.27657   11.08099   15.57590
      H1    -1.35421   10.85471   15.77367
       H     8.38082    7.55128    9.30986
       O     8.57933    8.02967   10.13417
      H1     8.05435    7.55920   10.84506
       H     6.51614    4.75856   14.35518
       O     5.87072    5.44362   14.20834
      H1     6.29590    6.00882   13.51435
       H     5.26517    9.60462   12.89317
       O     6.01935    9.75393   13.42350
      H1     5.94055   10.74494   13.59820
       H     2.30979    2.48923   13.33215
       O     1.95533    3.30897   13.07919
      H1     1.29634    3.51737   13.73643
       H     9.52025    1.59203   18.38829
       O     9.32522    0.90658   17.74670
      H1     9.49940    0.04395   18.24339
       H     9.29448    0.50970   15.94624
       O     9.16700    0.19930   15.02411
      H1     8.93976    0.91116   14.43164
       H     7.10910    7.05812   16.93832
       O     7.83863    6.63033   17.43721
      H1     7.39186    5.75894   17.60360
       H     1.67247    3.55856   19.46358
       O     1.25431    4.40892   19.24826
      H1     1.94754    4.82052   18.71041
       H    10.41398    8.15708   18.32876
       O     9.95943    8.64337   17.64073
      H1     9.09477    8.21030   17.46232

