180
frame 4 | Written by MDAnalysis XYZWriter (release 2.4.3)
       H   -19.45998  -10.54108   16.84834
       O   -18.81516  -10.32437   17.62034
      H1   -18.08265  -10.77481   17.25369
       H   -17.80774  -17.56418    7.58997
       O   -18.17341  -17.34355    6.70199
      H1   -18.53592  -18.18205    6.36742
       H    -9.56051  -10.44071   12.17818
       O    -9.89572  -10.43966   11.29189
      H1   -10.76260  -10.85682   11.26630
       H   -14.41036  -10.12851   10.11468
       O   -13.67560   -9.66135    9.68461
      H1   -14.03414   -8.81989    9.34900
       H   -12.03940  -14.02147    7.43524
       O   -12.33018  -14.92522    7.18121
      H1   -13.08048  -14.86054    7.82634
       H   -18.61917   -6.86395   17.67100
       O   -19.44378   -7.37681   17.51059
      H1   -19.05483   -8.23925   17.40996
       H   -19.84538   -8.16057   13.09898
       O   -19.29061   -8.51123   12.40918
      H1   -19.64956   -8.15644   11.58709
       H   -13.17692  -11.35017   14.27435
       O   -13.80453  -10.71986   14.74788
      H1   -14.59996  -11.25237   14.63060
       H   -13.51892  -12.95977   17.25797
       O   -13.22859  -13.68527   16.69301
      H1   -12.24043  -13.50947   16.66270
       H   -19.75286  -19.36724   16.11040
       O   -18.96133  -18.92103   15.76387
      H1   -18.58125  -19.62684   15.25633
       H   -15.89278  -14.94119   16.99440
       O   -15.81359  -14.24988   16.35973
      H1   -14.86797  -14.20023   16.22725
       H   -16.89297  -13.91093    6.12225
       O   -17.66025  -13.62763    6.73805
      H1   -17.64435  -12.65074    6.62769
       H   -18.39218   -6.72444    7.96198
       O   -17.87553   -7.42718    7.56015
      H1   -18.30678   -7.59085    6.70119
       H   -12.82764  -11.32512   10.19565
       O   -12.16825  -11.97919   10.10492
      H1   -12.66533  -12.85657   10.34823
       H   -19.03156   -4.39141    6.88722
       O   -19.10250   -4.92428    7.71442
      H1   -19.28207   -4.23162    8.42847
       H   -18.23010   -8.08274    4.45316
       O   -18.99473   -8.08136    5.03569
      H1   -19.36585   -7.23521    4.81395
       H   -19.77532   -5.72261   12.06789
       O   -19.43753   -5.07006   12.71112
      H1   -18.68947   -5.52174   13.12685
       H   -17.96639  -10.83444    7.76173
       O   -17.36222  -11.06369    7.00079
      H1   -17.88239  -10.66439    6.22635
       H   -12.43416   -5.31364   10.98609
       O   -12.73943   -6.22454   10.72546
      H1   -12.15968   -6.34690    9.93022
       H   -15.03155  -19.33692   12.09222
       O   -15.53733  -19.15173   12.91855
      H1   -15.24169  -18.24056   13.11991
       H   -15.54408  -14.90547    8.73531
       O   -14.77022  -15.40730    8.40051
      H1   -14.98288  -16.33618    8.47477
       H   -19.56448  -10.30847   12.32706
       O   -19.69917  -11.24100   12.33272
      H1   -18.85616  -11.61831   12.62916
       H   -17.79562  -14.06348   15.98497
       O   -18.75790  -14.32388   15.83403
      H1   -18.65803  -15.23042   15.46122
       H   -16.22733  -11.81814   10.10583
       O   -15.92079  -11.00194   10.58413
      H1   -16.44292  -11.13428   11.41334
       H   -17.48893   -4.25792   15.54444
       O   -17.92818   -3.56170   15.13112
      H1   -17.26700   -3.27100   14.43556
       H   -15.43484   -5.41288   17.45709
       O   -14.52657   -5.23667   17.13218
      H1   -14.14225   -6.11883   17.34445
       H   -15.11337  -18.66797    9.32199
       O   -15.54822  -18.14161    8.55835
      H1   -14.77853  -18.28177    7.93096
       H   -16.19951   -9.66415    7.14181
       O   -15.38158   -9.21364    6.88027
      H1   -14.69863   -9.75530    7.26125
       H   -18.74570  -10.75142   10.33479
       O   -18.37028  -10.42983    9.49157
      H1   -17.42624  -10.36032    9.82540
       H   -16.34622   -6.63208    6.43356
       O   -15.91530   -5.86289    6.00571
      H1   -15.79260   -5.19914    6.74962
       H   -17.63397   -7.57759   12.61893
       O   -17.04215   -6.88136   12.95768
      H1   -16.38731   -6.71610   12.29646
       H   -15.97384   -8.78193   16.54733
       O   -15.15168   -9.28637   16.89863
      H1   -14.58401   -9.19234   16.09742
       H   -14.56882   -7.53907   19.10468
       O   -13.87137   -7.48838   18.35281
      H1   -14.14618   -8.19860   17.79115
       H   -12.19950   -7.49683   14.23571
       O   -11.96308   -6.56663   14.46746
      H1   -11.65343   -6.80858   15.35865
       H   -14.45260  -16.95633   11.18020
       O   -14.74720  -16.43467   11.91115
      H1   -15.69884  -16.45327   11.77912
       H   -17.66294  -13.94356    9.57574
       O   -16.91224  -13.35805    9.23504
      H1   -17.13013  -13.40245    8.23496
       H   -11.99465  -13.38941   13.38200
       O   -12.10612  -12.60047   12.85536
      H1   -11.81319  -12.92375   12.02250
       H   -13.71710  -14.82704   11.15680
       O   -13.32438  -14.36020   10.37205
      H1   -13.93996  -14.65740    9.67587
       H   -14.40197   -7.75259    7.44635
       O   -13.76477   -7.18619    7.96162
      H1   -13.69902   -6.38561    7.45812
       H   -12.20066  -15.86061   14.23195
       O   -11.61718  -15.32583   13.73417
      H1   -10.69943  -15.33529   14.14269
       H   -16.97387  -16.99005   15.83868
       O   -17.58014  -16.71292   15.11148
      H1   -18.34383  -17.30488   15.31748
       H   -13.47003   -5.50689   13.92185
       O   -14.38651   -5.12125   13.86207
      H1   -14.69442   -5.14117   14.75839
       H   -13.10333   -9.13249   12.27196
       O   -12.67663   -8.99980   13.13434
      H1   -13.17697   -9.71133   13.59924
       H   -19.17839  -14.16955   17.50012
       O   -18.95520  -14.36970   18.41994
      H1   -19.28673  -13.63480   18.97682
       H   -15.01196  -12.92683    4.82121
       O   -15.84086  -13.38331    4.69101
      H1   -16.50376  -12.70261    4.60278
       H   -14.85441  -16.89043   17.69342
       O   -15.43861  -17.42783   17.13843
      H1   -14.91591  -18.23430   16.87668
       H   -16.38605  -12.38975   16.54513
       O   -16.62080  -11.50646   16.29001
      H1   -15.80198  -10.96056   16.53813
       H   -15.76511  -10.33523    4.03076
       O   -16.36512   -9.65854    4.40371
      H1   -15.96664   -9.47077    5.29509
       H   -18.45515   -2.05310   12.00695
       O   -18.91214   -2.64276   11.40584
      H1   -18.98671   -3.42481   11.97014
       H   -15.32296  -14.24365   12.99572
       O   -14.93873  -13.34692   12.84559
      H1   -14.25154  -13.49841   12.18996
       H   -16.76756   -6.38635   18.69875
       O   -16.98747   -5.95418   17.86131
      H1   -17.46898   -5.21774   18.28395
       H   -17.71967  -15.58021   13.43054
       O   -17.84971  -15.11543   12.58362
      H1   -18.39953  -15.80645   12.07620
       H   -18.13381  -13.17443    3.38795
       O   -18.28326  -12.42857    3.96968
      H1   -19.24734  -12.45722    4.08420
       H   -16.70293  -12.44100   13.37401
       O   -17.16603  -11.61203   13.07965
      H1   -17.30078  -11.11068   13.88143
       H   -13.24636  -11.22822   19.07275
       O   -13.83404  -12.00863   19.07142
      H1   -14.59694  -11.50508   19.46304
       H   -12.61539  -10.22932    8.07530
       O   -12.23240  -10.79922    7.48026
      H1   -11.89010  -11.55015    7.93770
       H   -15.19699   -4.87328   10.75716
       O   -15.37170   -5.67298   10.20158
      H1   -14.45172   -5.86387   10.14232
       H   -15.89617   -4.77463    8.84501
       O   -15.92872   -4.11900    8.10378
      H1   -16.88783   -4.12902    7.92844
       H   -17.25714   -6.83580   15.91127
       O   -16.68455   -7.55296   15.62656
      H1   -16.63969   -7.40280   14.62787
       H   -16.61277   -7.25307   10.07718
       O   -17.07902   -8.06046   10.09902
      H1   -17.70265   -8.04762    9.37669

