180
frame 0 | Written by MDAnalysis XYZWriter (release 2.4.3)
       H   -13.18292    6.90435   14.51152
       O   -12.64234    6.59382   15.21758
      H1   -12.01998    7.35077   15.35960
       H   -16.47276   18.95745   13.87355
       O   -17.23277   18.62387   13.39813
      H1   -17.43027   17.87413   13.92564
       H    -9.25525   19.49653   14.58851
       O    -9.79554   19.76666   15.35640
      H1    -9.52595   19.17879   16.10259
       H   -14.42263   17.49479    9.02580
       O   -15.30593   17.82495    9.40377
      H1   -15.84642   17.82899    8.60896
       H    -8.05661   15.53127   17.65742
       O    -8.94824   15.69702   17.79443
      H1    -9.41126   15.48500   16.99336
       H    -8.13840   14.66698   14.54231
       O    -9.05107   14.72161   14.25460
      H1    -8.96071   13.97803   13.65150
       H   -17.60010   16.07486   17.86791
       O   -16.98071   16.51820   17.23437
      H1   -16.95156   17.41832   17.70389
       H   -13.89310   15.29508   17.11301
       O   -13.69449   14.75845   16.31860
      H1   -13.90506   13.87064   16.69167
       H   -13.38093    9.00154   12.63864
       O   -13.48951    9.96892   12.64331
      H1   -12.59424   10.16909   12.96753
       H   -16.83305   15.72622   14.31804
       O   -17.65369   16.18900   14.51136
      H1   -17.64652   16.26249   15.46088
       H   -14.70180   16.46668   13.18987
       O   -14.22108   17.25156   12.82326
      H1   -13.28243   17.08332   13.08171
       H    -6.41143   15.41590   14.09642
       O    -6.40940   14.83412   14.92682
      H1    -5.51170   15.12091   15.33766
       H   -13.90395   17.41078   18.04734
       O   -14.39463   16.62306   18.36153
      H1   -15.23983   16.74485   17.97343
       H    -9.55972   12.37988    9.16662
       O    -9.13968   11.55244    8.87861
      H1    -9.88151   10.98553    8.93497
       H    -8.48450   19.44971   11.48268
       O    -9.28623   19.21564   12.02527
      H1    -9.53848   18.38825   11.58804
       H   -13.43256   19.06055   15.53638
       O   -12.82610   18.91327   16.28839
      H1   -12.07481   19.52027   16.10610
       H    -9.80555   17.59488    8.35266
       O    -9.53437   16.69744    8.64629
      H1   -10.30979   16.32332    9.09202
       H   -11.06854   13.77131   10.13608
       O   -10.73635   13.67589    9.26136
      H1   -11.48688   13.54151    8.70499
       H    -8.37387   12.14252   12.26978
       O    -9.01930   12.35682   12.95511
      H1    -9.57742   11.48803   12.86640
       H    -5.99855   10.38935   17.38101
       O    -6.20681    9.61500   16.80971
      H1    -6.48976   10.05792   15.95002
       H   -15.22265    9.70481   14.17291
       O   -15.98662    9.09711   14.08885
      H1   -16.43836    9.57638   13.35763
       H   -13.42098    8.89069   17.90425
       O   -12.56984    9.40341   17.96110
      H1   -12.06080    8.73942   18.49627
       H   -12.25719   11.10556    9.30990
       O   -11.72087   10.39764    8.89068
      H1   -12.03871   10.21324    8.00195
       H   -10.51422   10.03161   14.01092
       O   -10.82057   10.49699   13.23187
      H1   -10.70458    9.82006   12.56176
       H    -8.87293   10.29126   17.23600
       O    -8.70221    9.42478   17.63047
      H1    -7.70921    9.39326   17.65570
       H    -9.26342   18.70802   18.34342
       O    -8.85857   18.35977   17.53119
      H1    -8.80603   17.43101   17.79779
       H   -18.02992   13.77189   18.98372
       O   -18.41491   14.67803   18.97549
      H1   -17.78164   15.03606   19.62150
       H   -17.09529   17.28411   12.00076
       O   -16.99012   16.59500   11.35320
      H1   -16.47013   17.11574   10.66365
       H    -6.75362   14.77938    9.08745
       O    -6.60683   14.24358    8.29012
      H1    -6.01849   14.81550    7.81801
       H    -5.86025   16.21872   18.42757
       O    -6.00430   15.91857   17.54232
      H1    -6.45154   16.68808   17.10455
       H    -7.08270   12.83062   15.63377
       O    -7.52249   11.95315   15.46043
      H1    -7.92776   12.20328   14.58137
       H    -5.49295   11.17928   19.53007
       O    -5.93966   11.60172   18.85354
      H1    -6.79874   11.74238   19.30891
       H   -10.64658   16.64730   12.50976
       O    -9.97577   16.42341   11.81709
      H1   -10.43801   15.71491   11.45121
       H   -14.71796   18.90140   13.59064
       O   -14.79389   19.47972   14.33921
      H1   -14.94722   20.33448   13.90961
       H   -10.40044    7.16900   18.79242
       O   -10.27314    7.92888   19.35595
      H1    -9.60892    8.41278   18.76630
       H    -7.99135   11.34181   10.17258
       O    -7.42065   11.38574   10.97395
      H1    -6.59982   11.88223   10.68639
       H   -14.75235   12.74141   18.70460
       O   -15.17186   12.99384   17.87013
      H1   -15.41736   13.93184   17.89914
       H    -3.26931   15.36073   15.88331
       O    -3.71866   15.76478   15.15253
      H1    -3.59307   16.70676   15.44495
       H   -11.77947   14.59173   16.03251
       O   -11.04618   15.21035   16.01073
      H1   -10.48267   14.77401   15.34296
       H   -10.82701   12.96505   12.25156
       O   -11.64038   13.40411   11.95688
      H1   -12.20779   12.60118   11.82482
       H    -3.60893   12.45747   11.53490
       O    -4.13620   11.86920   12.08113
      H1    -4.18597   12.21958   13.01425
       H    -4.07164   12.77621   15.86822
       O    -3.76947   12.20244   15.09360
      H1    -3.44124   11.36788   15.40857
       H    -7.32938   16.70231   11.29959
       O    -7.20412   16.51929   10.33586
      H1    -8.08191   16.69816    9.93023
       H   -16.57287   19.34753   19.28967
       O   -17.19883   18.69824   18.81874
      H1   -17.98768   19.24471   18.68218
       H   -13.34054   16.43582   10.80345
       O   -12.77883   16.92626   10.23414
      H1   -12.69510   17.76145   10.70448
       H   -15.49381    8.99978   19.37931
       O   -15.35491    8.70841   18.43982
      H1   -15.50282    7.73719   18.50961
       H   -15.42413   12.10919   12.71260
       O   -15.08470   12.33842   13.58449
      H1   -15.90981   12.22941   14.06668
       H    -5.00205   14.35128   17.43063
       O    -4.27390   13.66252   17.35319
      H1    -4.63255   12.93149   17.87486
       H    -7.48867   18.40473   16.42764
       O    -6.97089   18.03926   15.72115
      H1    -6.22247   18.66577   15.65589
       H    -6.78760   16.97020   14.04510
       O    -7.11559   16.75562   13.13937
      H1    -8.02212   16.46638   13.30777
       H   -16.86562   12.71282   11.18172
       O   -15.98111   12.43013   10.94546
      H1   -15.69746   13.32840   10.63325
       H   -10.02708    8.91915   16.12257
       O   -10.91833    9.09099   15.77032
      H1   -11.54137    9.17630   16.56465
       H   -17.89226   11.34030   14.00810
       O   -17.63170   12.08912   14.69140
      H1   -18.24880   12.82508   14.57154
       H   -16.66598   12.27466   17.49364
       O   -17.64075   12.40747   17.48308
      H1   -17.75857   12.12936   16.50387
       H   -14.84536   15.07305   14.78721
       O   -15.33269   15.05223   13.90757
      H1   -15.12520   14.14534   13.71067
       H   -13.55491   11.08406   11.50595
       O   -13.43679   11.64043   10.68109
      H1   -14.28315   12.02618   10.57823
       H   -11.48846   17.93500   14.03991
       O   -11.64879   17.04487   13.68443
      H1   -11.39678   16.46791   14.52179
       H    -8.56392    6.49673   17.02394
       O    -8.69772    7.14701   16.28566
      H1    -8.68586    7.96882   16.78845
       H    -9.78406   14.74245   18.99599
       O   -10.31344   14.36669   19.66945
      H1   -11.21739   14.57444   19.45011
       H   -14.06520   14.45230   11.48253
       O   -14.56074   14.49601   10.70245
      H1   -15.24328   15.07950   10.95822

