180
frame 7 | Written by MDAnalysis XYZWriter (release 2.4.3)
       H    -3.10833   -5.40515    4.83944
       O    -3.98653   -4.95053    4.77384
      H1    -4.43111   -5.20696    5.61664
       H    -8.40413  -10.23029    7.11080
       O    -8.86459  -10.78706    7.75307
      H1    -8.42344  -10.51290    8.57816
       H    -7.99973  -11.59024   11.60752
       O    -8.26668  -11.24681   10.73244
      H1    -9.09408  -10.74049   10.97814
       H    -3.16831  -11.36437    6.02543
       O    -2.87728  -10.88433    5.22659
      H1    -2.99980   -9.97349    5.48030
       H   -10.92426   -2.13301    8.45869
       O   -10.52052   -2.45891    7.59564
      H1   -10.08644   -3.28810    7.73898
       H    -7.23058  -11.82334   16.50354
       O    -6.26535  -11.60341   16.41793
      H1    -6.24015  -11.41092   15.47187
       H    -6.89655   -8.77797   11.47095
       O    -6.62564   -8.04726   10.82186
      H1    -7.46694   -7.83727   10.42341
       H    -5.69833   -4.22376   15.48631
       O    -5.73997   -4.67330   14.58842
      H1    -5.50875   -4.00184   13.97164
       H    -5.68492  -12.50451   11.08597
       O    -6.35334  -13.24357   11.16018
      H1    -6.31137  -13.74647   10.33433
       H   -12.60025  -10.93247   13.17872
       O   -12.92746  -10.31236   12.44497
      H1   -13.79293  -10.24055   12.72220
       H    -5.81353  -14.52257   12.90107
       O    -5.47982  -14.59644   13.81109
      H1    -5.38153  -13.63077   14.01581
       H    -1.07091   -1.94060   10.40505
       O    -0.77799   -2.88121   10.31612
      H1    -1.54474   -3.34535    9.97806
       H    -6.14568   -0.79159   10.18078
       O    -6.55336   -1.63335   10.40234
      H1    -7.42498   -1.22631   10.67659
       H    -7.72365   -9.99390   13.47531
       O    -7.62489   -9.05634   13.20619
      H1    -8.51329   -8.97896   12.78262
       H    -4.58517  -11.53351   12.97122
       O    -4.69307  -11.99071   13.74494
      H1    -3.88863  -11.78092   14.23532
       H    -2.39568   -7.61679    4.96079
       O    -2.64053   -8.22290    5.71022
      H1    -2.31770   -7.82527    6.50076
       H    -3.12572   -7.78935   15.58252
       O    -3.41161   -6.97119   16.15779
      H1    -4.12620   -7.38590   16.66398
       H    -0.49317   -5.42805    7.27087
       O    -0.89183   -6.29605    7.14013
      H1    -1.15335   -6.51135    8.06950
       H    -6.35322   -6.48155   17.23100
       O    -6.08728   -5.91828   17.96022
      H1    -6.85719   -5.53127   18.37704
       H    -5.50196   -7.51426    7.13652
       O    -6.20258   -8.16333    7.04293
      H1    -6.82926   -7.86897    7.68931
       H    -7.58908   -7.68459   15.43246
       O    -7.40300   -6.83566   15.76645
      H1    -6.77898   -6.43184   15.10986
       H   -10.69480   -6.15258    7.45999
       O   -11.29616   -6.74292    7.89745
      H1   -12.15355   -6.43301    7.52452
       H    -5.34114   -9.56569   17.79844
       O    -5.37145   -8.75040   17.22462
      H1    -5.59000   -9.04491   16.30441
       H    -9.08549   -8.84479    4.11140
       O    -9.70547   -8.37928    3.54436
      H1   -10.58855   -8.43455    3.91036
       H    -3.15715   -8.03769   10.59245
       O    -3.86517   -8.59625   10.19758
      H1    -4.61861   -8.12849   10.65741
       H    -1.42138  -12.00926   12.27433
       O    -1.68683  -11.89505   11.36788
      H1    -1.27146  -11.03744   11.28138
       H    -9.62044   -6.32783   16.65853
       O   -10.37340   -6.85478   16.39747
      H1   -10.09418   -7.73504   16.61344
       H   -12.31707   -6.61690   11.05562
       O   -11.43551   -6.72776   10.64208
      H1   -11.56832   -6.31296    9.75775
       H    -0.04078   -9.74698   10.39546
       O    -0.64708   -9.47975   11.07457
      H1    -0.99040   -8.60729   10.83060
       H    -9.33289   -3.99621   13.89677
       O    -9.41129   -3.00402   14.04779
      H1    -8.76258   -2.79116   14.73805
       H    -3.04420  -12.84526    7.29969
       O    -3.90783  -12.91851    6.84739
      H1    -4.48416  -12.94413    7.61899
       H    -2.97637  -14.69718   10.37791
       O    -3.66123  -14.29136    9.83376
      H1    -4.16851  -13.73779   10.43682
       H    -7.30745  -13.79686    7.94899
       O    -6.55170  -13.40216    8.35853
      H1    -6.96150  -12.67014    8.83634
       H    -7.17891   -5.73604   12.76521
       O    -6.68154   -5.44504   11.97358
      H1    -6.49645   -6.29321   11.56245
       H   -11.15870   -7.97453   13.51131
       O   -11.75433   -7.44681   14.13108
      H1   -11.05889   -7.25118   14.86314
       H   -10.83792  -12.87676   14.14786
       O   -10.55383  -12.19562   13.46974
      H1   -10.60943  -12.72194   12.64584
       H    -9.24184   -2.95862   11.03339
       O    -9.38338   -3.88594   10.80203
      H1    -8.50291   -4.26564   10.87450
       H   -10.73793   -8.18783   11.49744
       O   -10.39056   -8.83827   12.13955
      H1   -11.12309   -9.44434   12.36409
       H    -0.26604   -6.89402   13.35849
       O    -1.16592   -6.65636   13.10462
      H1    -1.38677   -5.82974   13.58281
       H    -9.24880  -12.65809    7.50584
       O    -9.19485  -13.59647    7.26935
      H1    -9.74920  -13.66596    6.47463
       H    -8.68564   -6.10053    8.44862
       O    -8.52118   -6.73345    9.18313
      H1    -9.36198   -6.66497    9.60378
       H    -8.88198   -4.92772    5.99057
       O    -9.08259   -4.76839    6.93244
      H1    -8.26869   -4.30112    7.22072
       H    -6.67742   -2.68140    7.16433
       O    -6.83127   -3.28373    7.86472
      H1    -6.81242   -2.70445    8.66866
       H   -11.22747   -3.81689   10.50001
       O   -12.18587   -3.84640   10.52160
      H1   -12.38903   -3.08381   11.00635
       H    -8.96529   -1.78332   12.93589
       O    -8.99522   -1.21137   12.15697
      H1    -8.74773   -0.36782   12.53150
       H    -8.91427  -11.86607   13.61860
       O    -7.94910  -11.86993   13.45745
      H1    -7.80667  -12.81989   13.33480
       H    -1.24445   -9.13563   15.26784
       O    -1.91872   -8.83087   14.65500
      H1    -1.50480   -8.18255   14.08579
       H    -4.13713   -5.53248    7.99587
       O    -4.88940   -5.60025    7.35121
      H1    -5.51359   -4.88101    7.56462
       H    -7.04914  -11.24625    6.01119
       O    -7.33844  -10.47579    5.53382
      H1    -6.83684   -9.78087    5.98158
       H    -1.82142  -11.79852    8.95750
       O    -1.53180  -11.99771    8.08232
      H1    -0.92783  -12.74436    8.19923
       H   -10.45169  -13.21784   10.75354
       O   -10.03650  -13.73282   11.44583
      H1    -9.13290  -13.44353   11.32000
       H    -4.10881   -1.95052   13.41542
       O    -5.02065   -2.29831   13.27700
      H1    -5.23378   -1.86254   12.42153
       H   -11.18115   -8.80969    7.89666
       O   -11.11329   -9.57475    7.34478
      H1   -10.22820   -9.86412    7.61534
       H    -3.38234   -4.84936   10.05762
       O    -2.90642   -4.79185    9.21269
      H1    -3.12189   -3.83424    9.16010
       H    -8.94481   -9.71718   17.13168
       O    -9.89531   -9.73384   16.85243
      H1   -10.43048   -9.89332   17.65296
       H    -3.40688   -5.39897   13.04279
       O    -3.79888   -5.33489   12.12054
      H1    -4.75847   -5.30800   12.22695
       H    -9.56674   -5.35364   12.38141
       O    -9.27326   -5.59746   13.28906
      H1   -10.06668   -6.00592   13.64663
       H    -4.31869  -10.11448   10.77622
       O    -4.46268  -11.05148   11.07673
      H1    -3.56382  -11.41593   11.04064
       H    -0.35990   -6.95582   10.47533
       O    -1.33861   -6.97748   10.49551
      H1    -1.52975   -6.65382   11.43505
       H    -3.21238   -5.74355   15.12333
       O    -2.89962   -5.11307   14.45219
      H1    -3.64643   -4.57505   14.29473

