180
frame 2 | Written by MDAnalysis XYZWriter (release 2.4.3)
       H     7.27617   -4.02998   -3.57050
       O     6.81604   -4.88606   -3.72238
      H1     6.03064   -4.60567   -4.23746
       H     5.00894    0.29170   -5.79169
       O     5.43922    0.41299   -6.65381
      H1     6.11122   -0.26826   -6.54425
       H     2.43969    1.56910   -9.63244
       O     1.75351    2.10516  -10.04678
      H1     1.21090    1.59515  -10.60336
       H    -0.33178   -2.37515   -7.15524
       O     0.48579   -2.79905   -6.77200
      H1     0.37723   -3.78708   -6.93738
       H     6.73186   -6.69186  -11.85588
       O     7.18754   -5.82476  -11.83938
      H1     7.03976   -5.61645  -12.79189
       H     9.61184   -4.28975   -5.25453
       O     9.51836   -5.02291   -4.58902
      H1     8.57030   -5.08943   -4.52831
       H     8.87603   -2.62499  -11.59494
       O     9.04038   -2.61200  -10.60749
      H1     8.29492   -3.24331  -10.31237
       H     4.62192   -2.70965   -9.25901
       O     3.86874   -3.12418   -8.80011
      H1     3.98605   -2.82519   -7.89953
       H     1.81648   -4.61991   -3.70629
       O     2.74148   -4.24171   -3.69067
      H1     2.78138   -3.76430   -2.81340
       H     0.83393   -2.64048  -12.82215
       O     0.58156   -2.64691  -11.88710
      H1     1.17305   -3.35138  -11.58222
       H     8.03930   -5.95427   -6.88601
       O     7.85631   -5.08304   -7.35558
      H1     8.59515   -4.51942   -7.01302
       H     7.59790   -2.15636   -5.47741
       O     7.48458   -2.02031   -6.47354
      H1     6.92555   -2.70887   -6.74558
       H     3.08590   -7.80672   -7.19194
       O     2.65684   -8.15766   -7.95890
      H1     3.25677   -8.81502   -8.37873
       H     3.93274   -4.83268   -4.83024
       O     4.61016   -4.64178   -5.47347
      H1     4.58744   -5.39202   -6.03565
       H     5.74948   -7.67869   -6.09946
       O     4.82391   -7.68382   -6.07010
      H1     4.49843   -8.03216   -5.24427
       H     1.99911   -0.70118   -9.88178
       O     1.12027   -0.56422  -10.17745
      H1     0.82190   -1.38057  -10.56793
       H     2.45394   -2.81378   -6.52831
       O     3.25006   -2.37388   -6.17107
      H1     3.71125   -3.16756   -5.77663
       H     2.73418   -4.22555  -10.00966
       O     1.86341   -4.58750  -10.39351
      H1     1.29600   -4.61963   -9.62956
       H    -1.35248   -7.05348  -13.49572
       O    -0.81846   -6.29399  -13.31404
      H1    -0.06627   -6.63581  -12.73537
       H     4.15988   -5.25180  -14.97722
       O     4.22463   -5.98291  -15.58532
      H1     3.46728   -5.93346  -16.17865
       H     2.17299  -10.50032  -10.50084
       O     1.50880   -9.80754  -10.62329
      H1     2.02971   -9.00000  -10.66522
       H     1.85735   -6.04817  -11.20647
       O     1.89764   -6.99501  -11.60605
      H1     2.54488   -6.91183  -12.31010
       H     2.45747   -1.47850  -12.10183
       O     3.38325   -1.43542  -11.88926
      H1     3.71538   -0.63335  -12.33427
       H     1.38817   -7.70280   -2.97975
       O     1.88065   -7.61787   -3.75945
      H1     2.61039   -8.16489   -3.48074
       H     0.05691   -6.97230   -5.02695
       O    -0.59808   -6.27358   -5.18611
      H1    -1.25874   -6.57811   -4.58587
       H     5.92890   -6.60326   -3.49882
       O     5.57921   -7.09509   -2.72222
      H1     6.04590   -6.63853   -1.98553
       H     5.31635   -0.62753   -2.99435
       O     4.94812   -0.26445   -3.81818
      H1     4.04429   -0.45310   -3.58736
       H     6.45641   -1.44155  -10.20742
       O     5.65859   -0.86049  -10.22164
      H1     5.07564   -1.37162  -10.80896
       H    -1.33603   -3.38079  -11.76888
       O    -2.10175   -3.96417  -11.86143
      H1    -1.72492   -4.78651  -12.28910
       H    -0.59576   -9.59760   -6.79488
       O    -1.07604   -9.86775   -6.00110
      H1    -1.68518   -9.15211   -5.82518
       H    -2.19021   -0.89642   -6.84986
       O    -1.87909   -1.29765   -7.63477
      H1    -1.10646   -0.72336   -7.77715
       H    11.43999   -7.31920  -10.17027
       O    10.77604   -7.25847   -9.45554
      H1    10.69863   -6.27974   -9.46231
       H    10.40923   -3.75720   -9.21535
       O    10.96000   -4.35287   -9.74766
      H1    10.59587   -4.42083  -10.64878
       H     9.36671   -8.39908  -10.08814
       O     8.83120   -9.00202  -10.58645
      H1     8.38326   -8.32573  -11.13416
       H     1.07129   -8.67601   -7.88671
       O     0.23271   -9.20962   -8.15915
      H1     0.49416   -9.30656   -9.08803
       H     5.68126   -8.72963  -13.02699
       O     6.55190   -9.06259  -13.23109
      H1     6.78407   -8.51872  -14.04971
       H    -0.02207    1.87526   -7.54741
       O    -0.24797    0.99115   -7.97235
      H1     0.35281    0.89763   -8.72303
       H     8.22719   -1.38818   -3.55426
       O     8.19153   -2.38309   -3.61723
      H1     8.98809   -2.55265   -3.18121
       H     9.42978   -5.66428  -11.84996
       O    10.27508   -5.62241  -12.26209
      H1    10.58439   -6.53197  -12.11258
       H    -2.90438   -3.98383   -6.63568
       O    -2.44507   -4.59507   -7.19501
      H1    -1.68484   -4.06948   -7.50137
       H    10.96686   -3.11799   -6.53317
       O    10.05180   -3.47342   -6.46525
      H1     9.56173   -2.60624   -6.56926
       H     3.67340   -3.04819  -13.33217
       O     3.93060   -3.82792  -13.88377
      H1     4.35672   -3.25462  -14.62157
       H     0.55054   -5.95332   -7.54661
       O     1.21962   -5.36018   -7.14087
      H1     1.02311   -5.49388   -6.21273
       H     6.82636   -4.71723  -10.54709
       O     6.81444   -4.07019   -9.79577
      H1     7.10702   -4.57139   -9.04405
       H     7.37695    1.78454  -10.37631
       O     7.53023    1.02381  -10.98579
      H1     6.81226    0.42323  -10.78393
       H    -1.44165   -6.27517   -9.48890
       O    -0.54398   -6.42848   -9.06522
      H1    -0.65267   -7.27769   -8.65998
       H     1.18920   -1.55588   -4.18212
       O     1.96248   -0.94044   -4.28262
      H1     2.38674   -1.23427   -5.12095
       H    -0.12187   -3.60987   -3.49692
       O    -0.42008   -2.85455   -3.98782
      H1    -0.05670   -2.95450   -4.87742
       H     6.45440   -3.45280  -14.64477
       O     7.10606   -4.17140  -14.46861
      H1     7.78787   -3.71389  -13.97322
       H     2.53010   -6.19452   -1.51712
       O     3.44337   -6.25367   -1.16233
      H1     3.96917   -6.11767   -1.91922
       H     3.59621   -6.26286   -8.21346
       O     4.35989   -5.74011   -8.47641
      H1     4.02942   -4.82842   -8.57051
       H     4.89560   -8.79529   -3.20299
       O     4.24948   -9.36410   -3.66121
      H1     3.98749   -9.91924   -2.91372
       H     5.21448   -7.09247   -9.80805
       O     5.46234   -7.67921  -10.46133
      H1     4.68651   -7.88115  -11.00125
       H     4.34855    0.13725   -9.34967
       O     3.47269    0.36916   -8.97748
      H1     3.67431    0.13996   -8.04084
       H     4.72663  -10.24834  -10.03160
       O     4.41145  -10.17327   -9.06804
      H1     3.97277  -11.02898   -9.02608
       H     9.88294   -0.19237   -8.26437
       O     9.65937   -0.13574   -7.31341
      H1     8.84515   -0.63156   -7.22788
       H     4.09879   -7.33019  -14.41813
       O     4.01978   -7.90229  -13.59250
      H1     3.36538   -8.49419  -13.97397
       H     7.00821   -8.85162   -9.19616
       O     7.00280   -9.48682   -8.46732
      H1     6.05295   -9.75858   -8.44114
       H     7.58088   -8.63507   -6.80650
       O     7.58190   -7.90256   -6.18094
      H1     8.24196   -8.21237   -5.55538
       H     3.93803  -11.68290  -12.05259
       O     4.32881  -10.81176  -11.80873
      H1     5.09208  -10.68875  -12.32051

