180
frame 1 | Written by MDAnalysis XYZWriter (release 2.4.3)
       H    13.92754  -17.34848    1.91093
       O    14.71794  -16.76490    1.81892
      H1    14.56959  -15.96549    2.35850
       H     7.49244  -16.09311    5.25229
       O     8.29477  -15.89639    5.81764
      H1     8.86380  -15.29948    5.26922
       H     7.62035  -13.20049    3.67643
       O     8.34113  -12.59312    3.72078
      H1     7.87860  -11.78113    3.53684
       H     8.76710   -8.85332    8.64585
       O     8.74810   -8.03911    9.21568
      H1     8.65970   -8.32082   10.13399
       H    10.40272  -17.29823    7.45346
       O     9.52485  -17.27249    7.80714
      H1     9.01531  -16.81203    7.02475
       H    17.71397  -13.20666    7.19175
       O    16.86195  -13.58578    7.44467
      H1    16.57637  -14.05392    6.65246
       H    11.13370  -12.72952    1.57784
       O    11.98743  -12.35983    1.89512
      H1    11.84939  -12.03802    2.78912
       H     9.01957   -9.42893    2.84305
       O     8.32174   -9.98694    2.47531
      H1     7.64658   -9.29435    2.30644
       H    11.78146  -11.39194    0.30453
       O    12.07212  -10.76247   -0.37987
      H1    11.32187  -10.33665   -0.73671
       H     6.61561   -9.92923    6.08043
       O     6.12754  -10.68733    5.80209
      H1     6.74966  -11.39787    5.85256
       H    14.24958  -13.55189   12.38365
       O    14.39512  -14.38299   11.89489
      H1    14.89224  -14.07635   11.10757
       H    12.79448  -11.16781   10.80787
       O    12.50858  -11.98908   11.20812
      H1    11.58687  -12.10066   10.91280
       H    10.34293  -16.64913    0.20059
       O    10.33029  -15.98976    0.94012
      H1    10.00307  -15.18687    0.50887
       H    13.43578  -11.94895   12.60327
       O    14.31706  -11.94292   13.05113
      H1    14.06519  -12.07181   13.92267
       H    15.85509  -15.21723    0.61829
       O    16.52788  -14.73035    1.08033
      H1    17.21936  -15.40130    1.11776
       H    10.62045  -15.68497   11.57376
       O    11.34040  -15.51892   12.23530
      H1    12.12672  -15.49425   11.64532
       H    13.08902  -12.90530    9.89604
       O    13.29068  -13.41205    9.10957
      H1    14.22924  -13.46864    9.07814
       H     8.81246  -17.04667    2.11700
       O     8.03257  -17.48106    2.51975
      H1     7.77370  -17.92314    1.74212
       H    13.58538  -13.80097    2.80378
       O    13.82542  -14.62663    3.28625
      H1    12.92754  -14.95544    3.43352
       H     8.84558   -8.17072    5.65528
       O     9.43032   -8.80389    5.22407
      H1    10.24134   -8.66267    5.73254
       H    10.05343  -13.19809   13.92873
       O    10.87613  -13.66837   14.17849
      H1    10.85893  -14.41438   13.53435
       H    17.93864  -10.49954    8.08604
       O    17.60435   -9.94679    7.35358
      H1    16.66481  -10.07629    7.35309
       H    12.39081  -10.25301    5.12333
       O    12.09731  -10.85276    4.42469
      H1    11.62354  -10.20775    3.91003
       H    15.75844   -8.15376    5.89740
       O    16.21784   -7.28155    5.90199
      H1    16.88919   -7.54507    5.21529
       H     6.96919  -13.32771    7.31583
       O     7.84645  -13.12262    7.01709
      H1     8.23239  -14.02911    6.71800
       H    18.67141  -12.37272    9.89458
       O    19.07311  -11.77111    9.19340
      H1    19.45908  -11.06841    9.76233
       H    17.62217  -17.06337    8.59125
       O    17.01082  -17.83711    8.66796
      H1    16.21363  -17.37023    8.40366
       H    12.68155  -15.17122    9.35128
       O    12.51567  -16.03142    9.75535
      H1    13.26002  -16.13304   10.34242
       H    14.40167  -15.80828    4.82879
       O    15.14431  -16.26622    5.23678
      H1    14.95106  -17.24329    5.19171
       H    17.91157  -17.71962    3.45685
       O    18.06109  -18.23298    2.62815
      H1    18.90499  -18.70723    2.77922
       H    11.88142   -8.37217    7.53105
       O    11.91358   -8.47075    6.56841
      H1    12.41780   -7.66830    6.31628
       H    12.60750  -19.24080    2.56349
       O    12.84238  -18.43464    3.08209
      H1    13.11741  -18.78532    3.94982
       H    17.20441  -19.71235    6.26279
       O    17.93929  -19.10926    6.50938
      H1    17.56492  -18.68356    7.32263
       H     8.65597  -10.99424    7.50208
       O     8.43400  -10.06143    7.39649
      H1     8.95928   -9.89189    6.55520
       H     7.54454  -15.73789   11.04730
       O     6.58317  -15.82760   11.27779
      H1     6.66302  -15.91148   12.25831
       H    15.63347  -14.38676   13.37059
       O    16.05768  -14.73521   14.15683
      H1    15.93143  -14.18780   14.94509
       H    14.68573  -15.84484    7.47924
       O    14.79736  -16.09539    8.43050
      H1    13.83495  -16.30511    8.64716
       H    14.80614  -16.42391    0.08560
       O    15.02643  -16.22244   -0.84136
      H1    14.25182  -15.72760   -1.12111
       H     8.27828  -12.08549   12.38196
       O     8.76499  -11.88813   11.57316
      H1     8.13045  -12.07534   10.87600
       H    12.48577  -16.40771    6.88569
       O    12.18498  -17.32120    6.89483
      H1    12.80361  -17.73792    7.48940
       H    11.64921  -19.19426   10.77980
       O    10.98386  -18.92477   10.16080
      H1    11.33303  -18.01131   10.03814
       H    10.77362  -14.49179    4.30090
       O    10.40796  -14.02152    5.09109
      H1     9.88396  -13.30739    4.66582
       H     5.11238  -17.05586    4.40842
       O     6.07860  -17.04237    4.59201
      H1     6.53924  -17.08987    3.66136
       H    10.98496  -15.88824    2.53868
       O    11.50173  -15.95350    3.36454
      H1    11.92542  -16.82230    3.29700
       H    16.34913  -11.41955   10.53398
       O    16.51815  -10.61869   11.05268
      H1    15.63975  -10.29020   11.35602
       H    12.74019  -13.87268    7.47413
       O    12.66056  -14.50407    6.73633
      H1    11.84154  -14.16627    6.30628
       H    14.14572   -9.56822   10.09439
       O    14.06659   -9.16666   10.96692
      H1    14.47056   -8.25864   10.81032
       H     8.42582  -13.09092    0.83283
       O     9.38611  -13.17728    0.63016
      H1     9.29530  -12.96370   -0.30067
       H    13.00186  -13.67864   -0.16063
       O    13.02483  -14.36626   -0.82187
      H1    12.08484  -14.38515   -1.11576
       H     9.14107  -16.99903   10.83593
       O     9.21358  -16.11827   10.34379
      H1     9.48619  -16.44854    9.39953
       H    16.27614  -13.47312    9.12455
       O    15.95577  -13.18285    9.99051
      H1    16.69166  -13.33225   10.62761
       H    13.79831  -11.06386    2.18614
       O    14.61979  -11.09344    2.71622
      H1    15.28980  -11.43776    2.07516
       H    18.13593  -11.35042    5.69001
       O    17.76473  -11.36499    4.82662
      H1    17.31446  -12.21502    4.83849
       H    14.84523   -9.71313    4.33151
       O    15.46805   -9.67102    5.05164
      H1    16.16142  -10.30329    4.87019
       H    16.83820  -13.06089    1.28458
       O    16.81923  -12.08879    0.98661
      H1    17.72818  -11.86862    1.20658
       H    16.90012  -16.20061    5.19877
       O    17.88395  -16.11433    5.07437
      H1    18.19905  -16.17346    6.03084
       H    17.04288  -14.46275    4.40799
       O    16.35380  -13.80347    4.49138
      H1    15.59920  -14.13168    3.97094
       H    13.92266  -19.61267   10.98563
       O    13.58451  -18.79003   11.31330
      H1    14.00833  -18.76141   12.26034
       H    13.45809   -9.91536    7.88042
       O    14.23155  -10.03856    8.43606
      H1    14.54503   -9.15647    8.47819
       H     8.81467  -19.62624    6.15200
       O     8.63094  -19.82882    7.06914
      H1     9.01103  -19.03095    7.45809

