180
frame 8 | Written by MDAnalysis XYZWriter (release 2.4.3)
       H     3.38256  -11.60638   17.84409
       O     3.71281  -10.71024   18.16273
      H1     3.44393  -10.67833   19.10821
       H    -0.10630  -13.29666   18.35348
       O     0.37574  -12.51072   18.71280
      H1     0.32150  -11.98340   17.87919
       H     9.57351  -14.91394   15.13174
       O     9.30109  -15.66151   15.72535
      H1     9.17809  -15.13447   16.54783
       H     4.62383  -11.19342   12.28892
       O     3.66893  -11.48020   12.29017
      H1     3.62971  -11.82597   11.37815
       H     3.88905  -17.21238   16.48707
       O     3.70962  -17.84456   15.81786
      H1     3.20683  -17.36308   15.16466
       H     1.68673   -8.70979   14.38587
       O     1.23555   -8.16785   13.71308
      H1     0.83292   -8.90026   13.17066
       H     2.03537  -14.39002    7.51808
       O     1.64860  -13.59214    7.88391
      H1     1.52791  -13.15633    7.03779
       H     7.40562  -18.27173   12.37252
       O     7.53848  -17.98388   13.28110
      H1     6.72086  -18.27986   13.74959
       H     2.76345  -12.66294    8.81022
       O     3.25488  -12.08633    9.42025
      H1     3.75976  -11.57504    8.78749
       H     2.94821  -18.75416   11.36206
       O     2.14704  -18.54748   11.88104
      H1     1.53869  -19.25682   11.63687
       H     1.46953   -9.15883    8.34877
       O     1.65542   -8.55766    7.63031
      H1     0.85436   -8.04012    7.67354
       H     2.45072  -15.84496   13.72319
       O     2.13107  -16.75270   13.89162
      H1     2.17192  -17.23835   13.03684
       H    -4.82820  -10.91457   12.82458
       O    -4.27701  -11.03472   13.64794
      H1    -3.42860  -11.29910   13.30949
       H    -2.74712  -11.74681   17.37598
       O    -2.71270  -11.95881   16.41381
      H1    -2.84177  -11.09427   15.99470
       H     0.55428   -6.70959   17.83778
       O     1.36251   -7.16844   18.05725
      H1     1.52897   -7.69910   17.31243
       H     3.59590   -8.16427    9.23018
       O     4.07403   -7.31448    9.39852
      H1     3.39046   -6.66506    9.19924
       H     6.41212  -12.20020   12.90612
       O     6.63526  -11.78868   12.13239
      H1     6.31755  -12.42633   11.44822
       H     4.89356   -7.96527   11.81853
       O     5.58210   -8.55176   12.20229
      H1     6.19682   -7.97052   12.68542
       H     6.59845   -7.22876   16.88907
       O     7.32320   -7.88390   16.69781
      H1     6.76834   -8.69109   16.66554
       H    -1.36559  -12.73917   11.54756
       O    -2.01806  -12.06125   11.68350
      H1    -1.46092  -11.27247   11.76787
       H     0.14801   -9.84678   10.87644
       O    -0.46553   -9.60844   11.59934
      H1    -0.58261   -8.64282   11.37316
       H     0.01539  -11.27805    8.94510
       O     0.78618  -10.74023    9.18413
      H1     1.38445  -11.49866    9.42149
       H     7.51370  -10.42676   11.17057
       O     8.10578   -9.81384   10.74196
      H1     7.49457   -9.31318   10.17925
       H    10.21657  -13.45187   13.29195
       O    10.73635  -14.15232   13.72244
      H1    10.92750  -14.73824   12.96885
       H     4.71884  -18.75072   14.82284
       O     5.55216  -19.28000   14.57716
      H1     6.12658  -18.95698   15.28431
       H     9.36459  -11.25516   17.16035
       O     8.89567  -11.32476   16.31631
      H1     8.09232  -10.87759   16.47768
       H     0.30067  -17.03110   17.47046
       O     0.72993  -16.45675   18.11771
      H1     0.06879  -15.81804   17.93969
       H     3.23274  -13.31548   18.91350
       O     2.83350  -13.26847   18.01266
      H1     1.96695  -12.94703   18.32740
       H    -0.24726  -17.07204   10.09319
       O     0.59780  -16.55940   10.27990
      H1     1.13282  -17.34979   10.61009
       H    -2.08693  -15.00730   18.73940
       O    -1.43185  -14.52545   18.19160
      H1    -1.96678  -14.09956   17.52072
       H     6.63786  -18.23082   17.35524
       O     7.11274  -18.18131   16.50786
      H1     7.47950  -17.26749   16.60316
       H     3.01328  -12.53438   14.18400
       O     3.15050  -12.26423   15.08442
      H1     2.53756  -12.90543   15.51165
       H     3.60422   -6.14877   13.11093
       O     3.27332   -6.90075   12.56216
      H1     2.47125   -7.27466   12.95132
       H    -4.66158  -15.06696   16.63633
       O    -3.72796  -14.96819   16.50201
      H1    -3.61717  -13.98985   16.33681
       H     3.00932   -9.46973   17.18663
       O     2.41916   -9.03055   16.52380
      H1     3.15837   -8.99481   15.85280
       H     5.46735  -10.01672   15.55466
       O     6.16597  -10.39923   16.12018
      H1     5.74560  -10.77456   16.90174
       H     4.48794   -9.33183   13.63428
       O     4.15193   -9.60034   14.48148
      H1     3.58345  -10.35174   14.33203
       H     1.55743  -15.06174   16.14146
       O     1.15061  -14.35948   15.57210
      H1     0.82586  -14.98081   14.87077
       H     5.85546  -14.37330    9.71952
       O     5.54322  -13.65444   10.31812
      H1     4.89289  -13.17562    9.73812
       H     9.31281  -14.79902   10.62756
       O     9.18447  -14.21327   11.36748
      H1     8.38425  -14.51517   11.85843
       H     3.65991  -14.09550   11.65794
       O     3.15460  -14.81886   12.03364
      H1     2.76263  -15.24789   11.20063
       H    -1.97644  -10.52175   18.65427
       O    -1.97721  -11.36853   19.11720
      H1    -1.02537  -11.60137   18.97142
       H     0.17664  -18.99353   16.42625
       O    -0.54344  -18.42111   16.24104
      H1    -1.29240  -18.73456   16.86405
       H    -3.32966  -15.49999   15.06201
       O    -2.99055  -15.82898   14.16917
      H1    -3.56023  -15.21557   13.68020
       H    -0.23661   -6.77497   13.18697
       O    -1.15957   -6.48429   12.99943
      H1    -1.39918   -5.87753   13.71641
       H     9.27347  -11.63308   14.57473
       O     9.54549  -11.52974   13.61699
      H1     8.71383  -11.73175   13.17745
       H    -0.76170  -11.99164   14.29834
       O     0.07109  -11.59540   14.30083
      H1     0.64018  -12.27832   13.97232
       H     5.84848  -12.73558   18.98466
       O     6.45036  -12.32437   18.31529
      H1     7.29813  -12.73833   18.45059
       H    -0.94222   -9.75704   15.82372
       O    -1.59559   -9.21080   15.40196
      H1    -1.11453   -8.73594   14.68475
       H     0.37677  -11.20548   15.87618
       O     0.57567  -10.86810   16.77698
      H1     1.33635  -10.27683   16.54715
       H    -1.94201  -12.20533    9.25609
       O    -1.74026  -11.97428    8.35684
      H1    -1.54804  -12.84584    8.00151
       H     4.93952  -15.07323   17.12752
       O     4.50384  -15.56523   17.75905
      H1     3.83076  -14.96963   18.01053
       H     4.91594  -19.75998   11.60913
       O     5.11598  -19.01010   11.02761
      H1     5.24956  -18.24881   11.59556
       H     5.81766  -16.24967   12.70801
       O     5.08250  -16.64775   12.25903
      H1     4.43728  -15.95357   12.21821
       H     4.97708  -12.73322   14.79073
       O     5.87254  -12.48897   14.57577
      H1     5.95384  -11.76985   15.21735
       H     6.83658  -14.30535   17.21168
       O     6.50488  -14.39851   16.29186
      H1     6.53402  -13.48138   15.96557
       H    -0.77802  -15.48309   12.98069
       O    -0.73768  -14.80130   12.31267
      H1    -0.51084  -15.35473   11.57678
       H     8.38312   -7.43167   13.78010
       O     7.47868   -7.42615   14.03044
      H1     7.53266   -7.40279   15.02687
       H     7.18582  -14.95854   14.23249
       O     7.26009  -15.31419   13.33440
      H1     7.72647  -16.18244   13.57787
       H     5.70945   -9.40753    9.58299
       O     5.36650  -10.12668    9.01409
      H1     6.24497  -10.50142    8.66096

