180
frame 0 | Written by MDAnalysis XYZWriter (release 2.4.3)
       H    -6.73879  -14.09605    7.93444
       O    -5.89348  -14.11921    7.43030
      H1    -5.31656  -13.56098    7.98273
       H    -9.06562  -14.76662    8.63518
       O    -8.42305  -14.10284    8.36811
      H1    -8.82396  -14.02000    7.49796
       H    -5.61197  -13.68909    0.82145
       O    -5.10053  -12.92127    0.59745
      H1    -4.68594  -12.72377    1.44798
       H    -7.15753  -13.13641    2.20934
       O    -7.77261  -13.83683    2.20255
      H1    -7.39569  -14.45000    2.88015
       H    -8.20057   -8.36665    9.48721
       O    -7.30767   -8.57434    9.68398
      H1    -6.78096   -7.80590    9.61342
       H    -9.69594   -9.73678    2.83069
       O    -9.31943  -10.24807    3.60130
      H1    -9.22728   -9.57670    4.29223
       H    -5.08316  -16.02881    9.67426
       O    -6.03941  -15.81003    9.52316
      H1    -5.94400  -15.14998    8.78375
       H   -10.09474  -15.24581    0.20470
       O   -10.05273  -14.74474    1.05373
      H1    -9.06304  -14.58724    1.15216
       H   -14.55987  -16.29716    5.47416
       O   -14.22799  -16.88512    6.17364
      H1   -13.54304  -16.31474    6.50715
       H    -7.72888  -10.78795    2.85846
       O    -6.75654  -10.98304    2.92725
      H1    -6.66747  -11.24833    3.84407
       H   -10.40159  -16.15595    4.08610
       O    -9.77294  -15.41763    3.99912
      H1   -10.04197  -14.97166    3.19872
       H   -11.66763  -15.24118    5.73224
       O   -12.29005  -15.02182    6.44338
      H1   -11.83120  -14.22607    6.85603
       H    -7.50942   -9.57969   11.25079
       O    -7.31559   -9.88623   12.16542
      H1    -6.34527   -9.74682   12.18540
       H   -13.32990   -7.51510    4.50221
       O   -13.34303   -6.77398    3.87617
      H1   -13.88210   -6.11123    4.33770
       H    -7.09287   -8.61678    6.91349
       O    -7.39920   -7.71179    6.67990
      H1    -8.26212   -7.66745    7.10782
       H   -11.23012   -5.94148    6.54620
       O   -10.29432   -6.03284    6.35209
      H1   -10.09051   -5.15954    6.06066
       H    -8.64132   -8.00891    4.69160
       O    -9.33151   -7.46701    4.26732
      H1    -9.74097   -7.10417    5.12069
       H    -5.22447   -9.72238    7.38438
       O    -6.05486  -10.24765    7.41041
      H1    -6.45219  -10.07573    8.30016
       H   -13.07155  -10.42508   -1.08775
       O   -13.32684  -10.72887   -0.20441
      H1   -13.23429  -11.68771   -0.26928
       H   -19.35621   -9.93938    6.15535
       O   -18.59057   -9.86725    6.73171
      H1   -17.87986   -9.50277    6.20161
       H   -11.61211  -13.11194   12.54329
       O   -11.32423  -13.34477   11.64429
      H1   -11.93131  -14.02341   11.41505
       H   -17.54784  -11.03811    9.84027
       O   -17.34476  -11.45250    9.00643
      H1   -17.56116  -10.79436    8.36308
       H   -17.26023   -7.00587    3.15934
       O   -16.77184   -6.64090    2.42739
      H1   -15.90589   -7.02222    2.61137
       H   -16.84319  -14.62092    9.53685
       O   -15.95333  -14.77864    9.82559
      H1   -15.81439  -15.72676    9.82484
       H   -11.91227  -17.51139    3.19384
       O   -11.75214  -17.41584    4.17379
      H1   -12.55148  -17.84956    4.47848
       H   -10.28815  -16.57688    9.41804
       O   -10.38987  -16.15010    8.52238
      H1   -11.26014  -15.79483    8.63974
       H    -7.75797  -16.33430    6.71913
       O    -7.89279  -16.87568    5.95531
      H1    -8.64548  -17.48921    6.15898
       H   -15.42430  -11.71173    9.15635
       O   -14.49785  -11.85520    8.83153
      H1   -14.44150  -12.76845    9.17218
       H   -13.76311  -14.09179    0.04944
       O   -14.06303  -13.33853   -0.47546
      H1   -14.95513  -12.99698   -0.23840
       H   -17.52864  -10.30022    2.11918
       O   -16.79566  -10.37224    1.52235
      H1   -16.77169  -11.32934    1.29515
       H   -10.79394  -10.83915    4.62613
       O   -10.98955  -11.53448    5.27148
      H1   -10.16233  -12.04598    5.30587
       H    -7.04763  -15.62044    4.75215
       O    -6.67574  -15.48308    3.90192
      H1    -6.68087  -16.39560    3.50404
       H   -13.18810  -15.87230   11.45142
       O   -13.16417  -15.55899   10.54456
      H1   -14.00880  -15.00781   10.63317
       H   -13.60288  -10.05787    1.29477
       O   -14.03189   -9.69405    2.08291
      H1   -15.02804   -9.67205    1.81814
       H   -10.55171  -13.73650   -0.09883
       O   -10.51322  -13.33941   -0.98749
      H1    -9.58105  -13.18587   -1.12998
       H   -13.76282   -6.88855    6.79859
       O   -13.54267   -6.53393    7.68936
      H1   -13.29096   -5.62176    7.46952
       H   -14.65373  -14.72789    3.50702
       O   -15.25341  -15.19007    4.14443
      H1   -15.56250  -14.45862    4.80813
       H   -10.16246  -17.35338    7.44631
       O   -10.12141  -18.18483    6.88525
      H1   -10.92139  -18.06348    6.37691
       H   -11.34935  -12.25429    6.97959
       O   -11.80909  -12.64834    7.73192
      H1   -12.64397  -12.16525    7.66195
       H    -8.18195  -12.77709    5.30514
       O    -8.87928  -13.29860    5.69869
      H1    -9.05190  -13.99299    5.07391
       H   -15.51938  -14.12607    6.91157
       O   -15.88765  -13.53596    6.24347
      H1   -15.62497  -12.63762    6.50273
       H   -11.87982   -8.17758   -0.46317
       O   -11.06514   -8.43836   -0.00106
      H1   -10.77585   -9.16314   -0.58478
       H    -7.44201   -8.92484   -0.84043
       O    -7.52398   -9.87946   -0.79817
      H1    -6.97098  -10.14944   -0.08046
       H   -10.42129   -8.84930    8.04366
       O    -9.76525   -8.22201    8.37185
      H1   -10.31657   -7.49212    8.53729
       H   -10.90628   -7.16661    1.38116
       O   -11.24134   -6.30592    1.69435
      H1   -11.92647   -6.56810    2.30309
       H    -6.98129   -4.39754    7.27344
       O    -6.72517   -4.88839    6.50375
      H1    -7.17394   -5.75609    6.56356
       H   -16.27678  -11.32857    4.28925
       O   -15.59008  -10.87613    4.79694
      H1   -14.78008  -11.20427    4.38111
       H   -12.62085  -17.62087    0.65711
       O   -11.89791  -17.33646    1.23165
      H1   -11.32207  -18.18874    1.27073
       H    -9.45059  -16.44019    1.15490
       O    -8.97355  -17.14440    0.63344
      H1    -8.17528  -17.31159    1.18485
       H   -17.62820  -13.39086    3.58911
       O   -17.13606  -12.62261    3.34111
      H1   -16.38387  -13.04317    2.95777
       H    -5.88471  -11.36857    6.14444
       O    -6.13151  -12.10283    5.53936
      H1    -6.13850  -12.71414    6.33022
       H   -13.77107   -8.99457    6.53972
       O   -14.19132   -8.52423    5.82331
      H1   -14.79541   -9.14655    5.39669
       H    -9.76543  -14.13866   11.29085
       O    -9.13950  -14.90259   11.29596
      H1    -8.36160  -14.38478   10.96530
       H   -12.22660  -12.04223    3.95830
       O   -13.09609  -12.09743    3.54946
      H1   -13.27804  -11.45522    2.85186
       H    -3.09297  -11.89030    4.21531
       O    -3.57119  -12.52227    3.62965
      H1    -4.38346  -12.77220    4.10566
       H   -11.90388  -10.78742    8.50227
       O   -12.12340   -9.82524    8.44135
      H1   -12.94356   -9.87845    8.86588
       H    -9.60256   -5.75240    2.14621
       O    -8.75865   -5.36634    2.51630
      H1    -8.53960   -6.07078    3.17204
       H   -16.16815  -16.65790    3.76181
       O   -16.72546  -17.40535    3.43727
      H1   -17.04293  -17.60802    4.31928
       H   -12.76482  -15.37395    1.91444
       O   -13.42089  -14.61760    1.99273
      H1   -12.88827  -13.89412    2.33153
       H    -5.18676  -11.56472   10.53711
       O    -6.12128  -11.78283   10.34214
      H1    -6.59318  -11.21723   10.98503

