180
frame 7 | Written by MDAnalysis XYZWriter (release 2.4.3)
       H    -1.55149   15.88867   -1.87811
       O    -1.93526   16.46397   -1.21248
      H1    -1.24884   17.08825   -0.93085
       H    -4.61823   17.79560   -8.25383
       O    -3.70324   18.00502   -8.53168
      H1    -3.36951   18.43851   -7.70627
       H    -3.80980   16.25381   -4.76671
       O    -2.96303   15.85514   -4.59282
      H1    -3.26348   15.14677   -3.97818
       H    -6.42995   14.88978    4.74553
       O    -5.89397   15.64600    4.88457
      H1    -6.36276   16.27513    4.39617
       H    -5.18237   12.37284   -7.17973
       O    -4.26705   12.69059   -6.97910
      H1    -4.49348   13.45031   -6.39381
       H   -14.39133   19.81422   -2.91247
       O   -13.81354   19.11223   -3.19284
      H1   -13.41734   18.83573   -2.34451
       H    -6.00479   18.00071   -4.94891
       O    -5.55110   17.25139   -4.54124
      H1    -6.08383   16.50227   -4.85754
       H    -0.06270   18.49615   -0.77253
       O    -0.28955   18.13198    0.09360
      H1    -0.96460   18.73535    0.42827
       H   -10.07784   11.69912    2.54546
       O   -10.50498   12.49784    2.89714
      H1    -9.90922   13.23017    2.69903
       H    -6.76352   18.66821   -0.69795
       O    -6.22222   18.56250    0.15550
      H1    -6.35570   19.49585    0.49395
       H    -9.19139   15.82840   -0.34537
       O    -8.47369   16.36048   -0.03193
      H1    -7.90473   16.42545   -0.76099
       H    -3.43619   15.44742   -0.31424
       O    -3.98290   14.72552    0.05783
      H1    -3.39059   13.96615    0.01268
       H    -2.93001   18.78242    1.49797
       O    -2.32046   19.49390    1.26126
      H1    -2.53168   19.78175    0.36829
       H   -13.04860   19.00794    3.28940
       O   -12.30699   18.33080    3.29449
      H1   -11.83429   18.60547    2.48521
       H    -8.13236   17.35848   -2.94696
       O    -7.43621   17.74367   -2.35990
      H1    -6.68083   17.44647   -2.93130
       H    -2.08889   17.22442   -4.27386
       O    -1.52790   17.99971   -4.19466
      H1    -1.13833   17.87752   -5.06689
       H   -11.52139   13.39228   -2.82543
       O   -11.20084   13.18795   -1.93337
      H1   -11.62032   12.33083   -1.70919
       H    -7.52402   12.84935    1.99075
       O    -7.51919   12.18469    1.29621
      H1    -7.08883   11.50205    1.78362
       H    -3.82693   14.16427   -1.86367
       O    -3.55183   13.76501   -2.67578
      H1    -2.71920   13.42686   -2.35951
       H    -6.53649   18.18673   -8.06820
       O    -6.44997   17.39025   -8.62432
      H1    -6.52479   17.80713   -9.53168
       H    -3.76092   11.87709   -0.89898
       O    -4.56704   11.92073   -0.39093
      H1    -5.09354   12.50116   -1.00668
       H    -0.06307   13.59183   -2.41931
       O    -0.72412   13.98905   -3.00373
      H1    -0.78832   13.39513   -3.78046
       H    -1.35544   12.93131   -5.95145
       O    -1.31772   12.36236   -5.18800
      H1    -2.05353   11.76899   -5.20893
       H    -9.03740   14.37892   -7.50791
       O    -8.73966   13.66460   -6.88019
      H1    -9.14898   13.99738   -6.06005
       H    -2.75416   16.60498   -9.00522
       O    -2.48194   15.70254   -9.34403
      H1    -3.27164   15.14217   -9.38212
       H    -2.05765   15.43798   -7.46373
       O    -1.75670   14.85875   -6.75546
      H1    -2.22730   15.20866   -5.91585
       H   -10.64010   15.37955   -7.97173
       O    -9.87216   15.80724   -8.34454
      H1    -9.85364   16.56631   -7.77853
       H    -3.64127   16.59663    5.14421
       O    -3.48604   17.43755    4.78964
      H1    -4.03434   17.55187    4.04517
       H    -7.49807   11.43148   -3.72775
       O    -6.68411   11.90761   -3.37700
      H1    -6.20111   11.29240   -2.79793
       H   -13.63239   15.66233   -3.36314
       O   -12.73757   15.60065   -3.00446
      H1   -12.47965   16.53777   -3.01040
       H    -9.17658   18.89762   -1.37713
       O    -9.57604   18.72142   -0.54876
      H1    -9.16099   17.87757   -0.30696
       H    -5.01114   13.12178   -9.67462
       O    -4.18488   13.57818   -9.52656
      H1    -4.33645   13.56603   -8.54002
       H    -6.95958   14.15217   -5.59942
       O    -6.05450   14.20924   -5.28214
      H1    -6.04402   13.68821   -4.48134
       H    -6.60052   15.95082   -9.68787
       O    -6.74996   15.60236  -10.57212
      H1    -5.84669   15.21172  -10.75964
       H   -12.53942   17.97652   -5.81836
       O   -11.85252   18.31858   -5.26266
      H1   -12.37665   18.63398   -4.54114
       H    -8.34390   13.93336   -2.84820
       O    -8.82475   13.97489   -3.67199
      H1    -9.62173   13.47518   -3.55527
       H    -9.02792   15.41415    2.82819
       O    -8.38268   14.73288    2.55810
      H1    -7.87942   15.19458    1.82460
       H    -4.38382   18.77126   -0.74057
       O    -3.48715   18.76188   -1.14717
      H1    -3.28871   17.80255   -1.02014
       H   -10.60312   16.53345   -9.79610
       O   -10.93540   16.65931  -10.73794
      H1   -11.42327   17.51117  -10.83218
       H    -8.77014   12.94286   -9.52662
       O    -8.71800   12.07614   -9.05659
      H1    -9.06648   12.39283   -8.19223
       H    -5.77730    9.97312   -0.66918
       O    -6.26128    9.58837   -1.42195
      H1    -5.54609    9.04651   -1.82228
       H    -9.03153    9.75386   -5.18433
       O    -9.07168   10.61962   -4.73797
      H1    -9.67604   10.37016   -4.01804
       H   -14.72439   15.98786    0.08674
       O   -14.53238   15.13974   -0.30917
      H1   -13.72184   15.33473   -0.81399
       H   -10.99809   14.99778   -1.39914
       O   -10.98803   15.65349   -0.64716
      H1   -11.50288   16.39195   -0.88899
       H    -3.87998   11.90643   -3.94386
       O    -3.80501   11.28640   -4.64490
      H1    -4.15652   11.73685   -5.44973
       H    -1.94546   12.27504    0.60628
       O    -1.79290   13.04069   -0.03759
      H1    -1.04133   13.42751    0.44231
       H   -12.34542   14.11291   -6.98023
       O   -11.99282   14.27475   -7.85149
      H1   -11.83726   13.39992   -8.17887
       H    -2.64686   18.60365   -5.33614
       O    -3.09384   19.00438   -6.16769
      H1    -3.94000   19.33966   -5.80421
       H    -0.41399   18.29765   -3.09286
       O     0.26368   18.77522   -2.51326
      H1     0.79835   19.28324   -3.16207
       H    -4.96945   17.74580    1.14903
       O    -4.37948   17.45556    1.81225
      H1    -4.18814   16.52509    1.63791
       H   -14.03283   17.76760   -7.53577
       O   -13.28854   17.16471   -7.27198
      H1   -13.66578   16.31644   -6.92675
       H   -10.50346   17.83640    3.89129
       O    -9.54678   17.91331    4.14656
      H1    -9.45514   17.13677    4.81958
       H    -7.37985   12.95691   -0.41955
       O    -7.27220   13.41523   -1.23057
      H1    -7.03146   12.69231   -1.89105
       H   -13.24272   14.60100    0.73618
       O   -12.46474   14.28212    1.26094
      H1   -11.77074   14.83193    0.91491
       H    -6.77989   11.76326   -6.18735
       O    -6.59425   11.37195   -7.08033
      H1    -7.31795   11.76197   -7.68962
       H    -0.13981   17.83420   -7.50196
       O    -0.04756   17.72963   -6.50117
      H1     0.36775   16.84559   -6.38561
       H   -12.74616   18.12831   -0.25383
       O   -12.28960   18.00212   -1.12680
      H1   -11.46093   18.31434   -0.89623
       H   -12.00559   14.53143   -4.44676
       O   -11.51171   13.85158   -4.95387
      H1   -12.17763   13.09733   -4.97254
       H    -6.49991   18.28970    2.63129
       O    -6.90343   18.17817    3.52327
      H1    -7.85083   18.28929    3.34155
       H    -9.57703   16.01489   -4.01732
       O    -9.21562   16.90788   -4.19976
      H1   -10.05168   17.33015   -4.39725

