180
frame 5 | Written by MDAnalysis XYZWriter (release 2.4.3)
       H     7.23195   16.36289    3.44367
       O     6.96449   15.46127    3.63328
      H1     7.81120   15.01348    3.57815
       H    -2.66301   15.80980    6.45830
       O    -2.73150   14.94437    5.92486
      H1    -1.80389   14.91363    5.56243
       H    -0.10811   11.07081   -0.37121
       O     0.85363   11.05860   -0.45124
      H1     1.04234   11.18460   -1.40869
       H    -0.94506   11.35188   11.27249
       O    -0.20420   11.60972   10.71128
      H1     0.36880   10.82952   10.71365
       H     3.32791   11.48097   12.45655
       O     3.88540   11.68100   11.64037
      H1     3.79008   10.75171   11.29215
       H     4.17138    9.13375   10.14552
       O     3.55964    8.79922   10.75311
      H1     4.14552    8.40135   11.46226
       H    -0.63796    9.47824    4.99460
       O    -1.48169    9.14420    4.76237
      H1    -1.21047    8.53504    4.10608
       H    -1.46083   11.13310    7.66003
       O    -1.85960   11.36121    8.50887
      H1    -1.16710   11.34912    9.19517
       H    -3.29592   13.14469    6.34820
       O    -3.82901   12.32787    6.23851
      H1    -4.53550   12.41729    6.92424
       H     2.85552   14.39528    1.29132
       O     2.65534   13.72942    1.96774
      H1     3.07270   13.95690    2.84450
       H     6.17952   17.70687    4.60813
       O     5.20649   17.73442    4.44111
      H1     5.18709   17.36443    3.55425
       H     0.47039   10.19508    1.19322
       O     0.69114    9.68292    2.00017
      H1     0.01171    8.99092    1.92433
       H     0.07781   12.75493    3.40941
       O     0.00118   12.38081    4.27281
      H1    -0.97888   12.27060    4.19017
       H     3.92141   11.40904    1.50515
       O     4.50394   11.91859    0.95767
      H1     4.05395   12.79716    0.94808
       H     2.51300   12.93971   -1.35174
       O     2.00273   13.72201   -1.06567
      H1     1.20068   13.35170   -0.65441
       H     0.81899   15.40725    6.10809
       O     0.04254   15.03865    5.72140
      H1     0.27296   14.10114    5.73322
       H     8.60514   13.47348    4.32320
       O     9.23170   13.67899    3.64216
      H1     9.67280   14.37068    4.17709
       H     0.26381   10.29257    7.33779
       O     0.09194   10.74123    6.50440
      H1     0.69896   11.51909    6.45012
       H     5.69535   11.05653    9.13974
       O     4.92438   10.42653    8.98242
      H1     4.62799   10.55685    8.09431
       H     1.59946   18.35326    1.26166
       O     2.45040   18.61090    1.67085
      H1     3.12379   18.29224    1.05096
       H     4.62815   16.76628    1.37795
       O     5.26996   17.32576    1.76989
      H1     5.73486   17.57151    0.92673
       H    -3.26180   15.88178    4.25547
       O    -2.71117   16.29514    3.56159
      H1    -3.41882   16.61065    2.95622
       H     2.25220   13.45622    7.38152
       O     1.69979   13.08912    6.72372
      H1     2.03428   13.26981    5.79990
       H     1.57114   14.28946   10.95165
       O     1.85812   14.91063   11.62279
      H1     0.98325   15.27328   11.97589
       H    -2.45162   12.80036    8.86800
       O    -2.68880   13.74540    9.05580
      H1    -1.84597   14.13167    8.77874
       H     7.13161   17.14987    6.49701
       O     7.74667   16.66540    5.87863
      H1     7.18816   16.10003    5.35566
       H     5.71126   13.91282    6.81136
       O     4.99536   14.45852    7.07635
      H1     4.49761   14.61757    6.28297
       H     9.69002   12.17894    8.56137
       O     9.03158   12.53643    7.95195
      H1     8.19896   12.36282    8.41028
       H     1.82189    5.14307    5.07616
       O     2.34807    5.49832    5.79949
      H1     2.08455    6.43851    5.82838
       H     6.15694   17.95562    8.79510
       O     6.90613   18.07055    8.27103
      H1     7.64304   18.03355    8.91516
       H     2.69972   12.41004   10.02353
       O     2.00303   12.99667    9.65607
      H1     1.10348   12.62822    9.89669
       H     7.88840   12.43220    6.28529
       O     7.38784   12.98994    5.68809
      H1     6.65218   12.48688    5.27507
       H     3.97724   10.36647    5.34152
       O     4.87716   10.65342    5.59124
      H1     5.52589   10.02927    5.21660
       H     3.48486   15.80443   -0.61157
       O     3.92582   15.65825    0.25850
      H1     4.83414   15.71257   -0.06834
       H     1.07027   18.53838    9.70719
       O     0.38755   18.01623   10.14980
      H1     0.76348   17.08361   10.15282
       H    -1.97170   14.36051   10.69109
       O    -1.30958   14.52801   11.38301
      H1    -1.54766   15.38849   11.74727
       H     5.03881    8.62626    2.46328
       O     4.48976    8.99392    1.74218
      H1     3.71652    8.38962    1.73677
       H     0.95251    8.50390    7.59878
       O     0.24203    8.66481    8.27432
      H1    -0.51649    8.24533    7.80467
       H     5.20639    8.81013    7.07843
       O     4.64793    8.12357    7.54981
      H1     5.01631    7.36324    7.07844
       H    -0.60647   16.73930    8.68429
       O    -0.60188   15.75225    8.65420
      H1    -0.27557   15.53052    7.78071
       H     6.65046   12.60535   10.44772
       O     6.51705   12.69376    9.46972
      H1     5.69155   13.24313    9.48305
       H     2.24535   17.33335    5.39811
       O     2.93006   16.70488    5.47207
      H1     3.75500   17.17484    5.43799
       H     4.34426   14.65405    8.79769
       O     4.19717   14.55670    9.72843
      H1     3.33833   14.05417    9.84167
       H    -2.36814   17.92488    6.22982
       O    -1.62234   18.07152    5.59469
      H1    -1.88135   17.52776    4.86199
       H    -2.48707   11.57287    1.07494
       O    -1.69370   11.79373    0.55011
      H1    -1.21844   12.37983    1.13865
       H    -2.35335    7.09569    6.84170
       O    -1.35775    7.23357    6.62928
      H1    -1.27402    7.98846    6.02573
       H     6.57226   15.09549    1.84839
       O     6.64473   14.81589    0.91884
      H1     7.56317   15.20438    0.62597
       H     3.90150   15.26072    4.69693
       O     4.15712   14.35092    4.50514
      H1     4.96129   14.39529    3.99309
       H     0.55123   18.24068    3.71771
       O     0.46573   19.03222    4.25940
      H1    -0.13959   18.72196    4.93988
       H     2.80660    8.35644    6.63555
       O     1.91969    8.12475    6.14808
      H1     1.85735    8.78078    5.43757
       H     5.18242    7.19687    4.42335
       O     4.29007    7.47774    4.71189
      H1     3.84113    6.63682    4.80170
       H     6.95701   14.69013   10.02514
       O     7.35180   15.54719   10.16698
      H1     8.10231   15.50379    9.51761
       H     4.44929   16.22189   10.19672
       O     5.03665   17.01406   10.28004
      H1     5.90800   16.65991   10.08826
       H     2.49483    9.74323    3.50841
       O     2.17617   10.25005    4.28713
      H1     1.51165   10.83209    3.89315
       H    -2.94091   11.58096    4.69538
       O    -2.63080   11.32243    3.81985
      H1    -2.10542   10.53019    4.05766
       H    -0.26895   14.65158    2.57342
       O     0.08698   13.96428    1.98388
      H1     1.05143   14.08345    2.03842
       H     8.02140   10.07697    5.30405
       O     7.62427   10.23143    6.15010
      H1     8.35959   10.52429    6.66930
       H     1.52228    9.03507   11.18492
       O     0.52682    8.98065   10.93674
      H1     0.51030    9.01757    9.96965
       H    -0.20822   16.92986    1.82282
       O    -0.23727   16.64499    2.77436
      H1    -1.17869   16.63813    2.97344
       H     5.60543   11.93660    2.60505
       O     5.89268   11.63059    3.48735
      H1     5.11141   11.52528    4.04889

