180
frame 9 | Written by MDAnalysis XYZWriter (release 2.4.3)
       H    -2.90889    4.30209    5.77513
       O    -3.15706    4.79678    5.01154
      H1    -3.83298    5.34741    5.40458
       H    -0.66878   -0.01816    6.63111
       O    -0.61102    0.83313    6.15551
      H1    -0.88618    0.50877    5.29627
       H    -1.07314    3.51393    6.00915
       O    -1.82117    3.03836    6.50186
      H1    -1.59254    2.08874    6.35098
       H     1.72368    1.21376    7.32394
       O     2.08997    0.99905    8.21645
      H1     2.14830    1.83954    8.69472
       H    -3.97786    8.66461    1.18483
       O    -3.65495    8.08658    0.39968
      H1    -3.28156    7.33159    0.93961
       H     2.08037   10.69900    0.31580
       O     1.12806   10.61220    0.64904
      H1     0.77218    9.93139    0.05058
       H     3.50126    7.49610    9.56380
       O     3.25308    7.73462   10.52273
      H1     3.90638    7.34882   11.06689
       H    -0.83062    3.31963   10.03132
       O    -0.32856    4.08069   10.35502
      H1    -0.90194    4.80446   10.15735
       H    -1.73785    8.51478    6.52074
       O    -2.18815    8.71970    5.70060
      H1    -1.84942    7.93849    5.20948
       H    -0.85235   10.57448    8.09961
       O    -1.62268   10.73092    8.73047
      H1    -1.22412   10.51142    9.58100
       H     1.36407    3.90222    9.74767
       O     2.18631    3.53968    9.55582
      H1     2.71010    3.68227   10.37835
       H    -4.88713    5.88423   10.17136
       O    -4.67600    5.45411    9.32412
      H1    -4.34295    4.61489    9.70186
       H     4.65390    2.80943    7.59337
       O     4.49585    3.75500    7.53002
      H1     3.63797    3.74952    8.03758
       H     0.16481    5.81999   -1.91582
       O     0.92914    5.99886   -2.46649
      H1     1.53593    5.28702   -2.27833
       H     1.19154    1.14939    5.11471
       O     1.92669    1.63296    5.44131
      H1     2.47811    0.84947    5.58100
       H    -2.95209    2.46480    9.27261
       O    -3.84170    2.63704    9.74504
      H1    -3.54742    2.49304   10.66876
       H     3.10763    7.29361    1.77080
       O     3.15389    7.56821    2.72440
      H1     2.29721    8.04436    2.76371
       H    -0.77804   10.08030    2.72462
       O    -1.55557   10.55305    3.02935
      H1    -1.40121   10.79841    3.99031
       H     0.18394   12.84885    4.53780
       O     0.34096   12.73783    5.45662
      H1    -0.53195   12.37956    5.75508
       H    -7.43053    4.33770    7.43913
       O    -6.57112    4.25494    6.94393
      H1    -5.97756    4.45915    7.64734
       H    -5.95862    5.83903   -0.12013
       O    -5.09183    5.72551   -0.54236
      H1    -4.54387    6.59825   -0.53507
       H    -6.16326    5.77248    4.93787
       O    -5.50203    6.24614    5.42583
      H1    -5.31840    7.04854    4.82845
       H    -3.75124    8.72195    4.94023
       O    -4.67096    8.59851    4.74809
      H1    -5.06176    8.52615    5.62345
       H    -3.58863   10.15443    2.51411
       O    -4.46883    9.84396    2.24193
      H1    -4.88914    9.51177    3.04377
       H    -1.02323    8.12551   -0.70853
       O    -1.12178    8.30421    0.25033
      H1    -2.09236    8.24582    0.32386
       H    -1.51878    5.59037    1.37969
       O    -2.36053    5.78636    1.80282
      H1    -2.04167    6.05642    2.70227
       H     0.36004    8.42076    7.44677
       O     0.26000    9.34379    7.42105
      H1     0.73176    9.47065    6.54869
       H     5.96698    8.69279    7.41090
       O     4.98472    9.02504    7.38617
      H1     5.09748    9.46527    6.51851
       H    -8.65777    5.81182    3.37652
       O    -7.79581    6.17078    3.08067
      H1    -7.18802    5.38967    3.04380
       H    -2.01835    0.89064    3.20401
       O    -1.05792    0.73660    3.27720
      H1    -1.01223   -0.21281    3.14191
       H     2.41881   10.80909    8.15345
       O     2.81057   11.72364    7.98247
      H1     3.25199   11.96299    8.85146
       H     0.81101    9.91887    2.06352
       O     0.63968    9.14329    2.67751
      H1     0.25582    8.49884    2.06446
       H     3.05784    3.77772    2.27874
       O     3.83459    4.31230    1.93499
      H1     4.38811    4.35217    2.78396
       H    -0.95584    1.15187    8.90754
       O    -1.48133    1.93323    8.86313
      H1    -1.38173    2.38939    7.96130
       H     1.92660    2.71768    3.33723
       O     1.43191    3.02420    2.61189
      H1     1.53383    2.18763    2.08328
       H     2.86518    6.76889   -0.71263
       O     2.71276    6.63891    0.23433
      H1     3.32505    5.89623    0.35205
       H    -0.41618    6.54749    4.42831
       O    -1.35781    6.71021    4.28610
      H1    -1.86127    5.95407    4.59016
       H    -6.66619    6.56729    7.08384
       O    -7.40416    7.05216    7.45716
      H1    -7.71390    6.59995    8.24058
       H     0.79113   -0.06353    1.27643
       O     1.37776    0.35472    1.91750
      H1     0.69301    0.33482    2.63241
       H    -2.07287    7.73332   -2.78088
       O    -1.90598    6.91386   -2.29179
      H1    -2.65926    6.33875   -2.48217
       H     0.69372    4.66215    1.62949
       O     0.44563    5.36182    1.04979
      H1     1.21372    5.95859    1.02561
       H    -0.06367    3.56320    3.86644
       O    -0.06819    4.01211    4.73997
      H1     0.84075    4.27236    4.78918
       H    -3.06339    3.63911    0.14470
       O    -2.73286    3.19651    0.95616
      H1    -2.56064    3.95482    1.54455
       H    -3.65689    2.61019    4.25944
       O    -3.80895    1.66839    3.92646
      H1    -4.80576    1.67725    3.92752
       H     3.44973   10.53952    4.79579
       O     4.18201   10.69021    4.23314
      H1     4.56046    9.86856    3.89959
       H    -1.83531   10.40308   -0.08408
       O    -2.26947   11.00768   -0.70628
      H1    -1.88762   11.86675   -0.50323
       H     0.47144    5.86014    8.47458
       O     0.59185    6.80516    8.33708
      H1     1.51564    6.85486    7.95350
       H     4.04785    7.58746    7.43825
       O     3.28965    6.94203    7.27229
      H1     3.69742    6.17017    6.92486
       H    -3.05969    9.60268    8.40906
       O    -3.79780    8.94893    8.55669
      H1    -4.39247    9.45798    8.00813
       H    -2.34802   12.36540    2.13657
       O    -2.50722   12.93831    1.40057
      H1    -1.69210   13.52474    1.51227
       H    -3.02913    6.33128    9.01198
       O    -2.11229    6.61326    9.11256
      H1    -2.12085    7.52449    9.01471
       H     2.50449    6.65150    5.36030
       O     1.97433    6.22494    4.70573
      H1     2.52815    6.41462    3.90335
       H     6.33690    7.80886    2.79338
       O     5.80943    8.53151    3.05009
      H1     4.94510    8.11808    2.88105
       H     4.34925    4.07277    5.36890
       O     4.86694    3.91782    4.55369
      H1     5.71820    3.60404    4.98103
       H     1.23490    9.69147    4.58201
       O     1.67490   10.17826    5.31235
      H1     1.15146   10.96968    5.35983
       H     5.61117    5.29622    6.08769
       O     6.01330    6.13466    5.94369
      H1     6.16155    6.06261    5.00215
       H    -2.89915   11.71008    5.53050
       O    -2.00840   11.35022    5.38678
      H1    -2.23577   10.36990    5.51501
       H     1.55621    7.77749   10.72157
       O     0.55310    7.66775   10.82173
      H1     0.25723    7.28966    9.95564
       H    -6.32399    3.52409    2.03587
       O    -5.90435    4.19815    2.62963
      H1    -4.97553    4.29893    2.32220
       H    -6.56752    3.13685    5.35363
       O    -6.40736    2.56710    4.62710
      H1    -6.19835    3.20101    3.91798

