180
frame 10 | Written by MDAnalysis XYZWriter (release 2.4.3)
       H   -15.83373   -6.12242   -3.05988
       O   -16.14732   -5.75938   -3.87847
      H1   -17.07074   -6.03637   -3.82007
       H   -18.40543   -1.00663    9.44913
       O   -18.38062   -1.31763    8.49586
      H1   -18.73252   -0.49249    8.07445
       H   -16.15935   -6.19169    1.60619
       O   -15.92196   -5.35964    1.98839
      H1   -16.80592   -4.99090    2.19180
       H   -17.30678    2.24793    9.52981
       O   -18.10494    2.51414    9.08689
      H1   -18.30472    3.42281    9.41605
       H   -15.52282    1.12570   10.04610
       O   -15.88136    1.76135   10.67243
      H1   -15.06368    2.20175   10.88132
       H   -10.61797   -2.22143    7.34749
       O   -11.53057   -2.52944    7.36093
      H1   -11.45431   -2.90684    8.25523
       H   -14.03050   -4.44626   -0.39780
       O   -14.95682   -4.22550   -0.57985
      H1   -15.23347   -3.72369    0.17301
       H   -11.57457   -3.63396    1.50321
       O   -10.77091   -4.17216    1.47611
      H1   -10.56930   -4.60450    2.27962
       H   -15.62374   -5.69385    4.17247
       O   -15.59589   -5.20447    5.04120
      H1   -15.75691   -5.95271    5.70346
       H   -18.99002   -1.64469   -1.25401
       O   -18.90492   -1.66887   -0.30953
      H1   -18.60576   -0.74090   -0.15363
       H   -18.91986   -7.60224    0.61677
       O   -18.72140   -7.40040   -0.31567
      H1   -18.62779   -6.42536   -0.36651
       H   -12.49213    1.10744    7.20404
       O   -12.41886    2.03444    7.49386
      H1   -12.84291    2.47304    6.71363
       H   -10.53701   -6.64166    6.50096
       O   -11.36014   -7.11988    6.62220
      H1   -12.01976   -6.42010    6.34375
       H   -19.54908   -5.28617    6.81889
       O   -19.43849   -6.24592    6.65808
      H1   -18.47562   -6.32478    6.81778
       H   -11.56263    0.24694    4.14255
       O   -11.01444   -0.47407    4.42007
      H1   -11.59984   -1.25474    4.40874
       H   -12.12652    0.96364    0.85762
       O   -11.69664    0.34422    1.42448
      H1   -10.86762    0.13465    0.95327
       H   -18.51985   -3.08993    7.09647
       O   -19.11538   -3.44999    6.45984
      H1   -19.93612   -3.32073    6.88630
       H   -19.34736   -4.09700    0.41413
       O   -18.74547   -4.76642    0.07382
      H1   -17.90144   -4.31044    0.20096
       H   -18.98075   -6.58550   11.32657
       O   -18.50937   -5.80911   11.63422
      H1   -18.15422   -6.04271   12.49779
       H   -16.64404  -10.50281    7.69153
       O   -17.43601  -10.62873    7.16977
      H1   -18.09933  -10.18518    7.76776
       H   -16.83769   -8.25581    0.60497
       O   -15.95716   -8.55270    0.94638
      H1   -15.77438   -9.08712    0.15086
       H   -15.70945    1.53505    0.45769
       O   -15.86758    0.59750    0.19333
      H1   -15.32732    0.01491    0.79028
       H   -14.04680   -4.19645    2.18893
       O   -13.49329   -3.45810    2.42231
      H1   -14.00319   -2.70941    2.03810
       H   -13.11985   -0.31475    5.54582
       O   -13.30046   -0.48075    6.48413
      H1   -12.69772   -1.16351    6.75160
       H   -16.93517   -9.27985    5.73727
       O   -16.27685   -8.89824    5.09650
      H1   -16.14340   -9.64049    4.45676
       H   -16.01410   -7.49783    7.54247
       O   -16.48863   -6.67379    7.41531
      H1   -16.32452   -6.27349    8.29278
       H   -13.32032   -0.88426    1.00814
       O   -14.20112   -0.91941    1.49120
      H1   -13.96120   -0.36548    2.28952
       H   -15.18893    3.52589    1.44077
       O   -15.77263    3.33457    0.69180
      H1   -16.55005    3.80308    0.90711
       H   -14.49271    3.76320    7.00833
       O   -15.27964    3.56917    7.58380
      H1   -15.24473    4.42649    8.08668
       H   -18.74062    3.24269    0.97903
       O   -18.79383    4.21845    0.95886
      H1   -18.94577    4.42472    1.85981
       H   -14.23110   -9.95949    7.40944
       O   -15.00352   -9.33024    7.32893
      H1   -15.26581   -9.34727    6.35583
       H   -11.53338    1.66493    2.61034
       O   -11.42303    2.09286    3.49506
      H1   -10.52240    1.87101    3.71909
       H   -17.69975   -2.36510    0.59511
       O   -16.80964   -2.67284    0.87990
      H1   -16.92739   -2.73313    1.84256
       H   -17.55198    0.74367    0.76281
       O   -18.27196    1.26881    1.22887
      H1   -17.93506    1.35180    2.12725
       H   -15.14868    0.36952   -1.37126
       O   -14.83931    0.62948   -2.24250
      H1   -13.80970    0.68539   -2.11117
       H   -18.59274    1.59472    4.27769
       O   -17.63213    1.58540    4.04551
      H1   -17.30549    0.79612    4.53420
       H   -12.98452   -7.63293    2.20573
       O   -13.00823   -6.66795    2.28045
      H1   -13.92271   -6.40158    2.38286
       H   -13.25450   -4.01617    6.57262
       O   -13.08876   -4.72568    5.91097
      H1   -13.93439   -4.85987    5.38640
       H   -14.73698   -0.26101    4.26898
       O   -14.00809    0.33445    3.90223
      H1   -14.33137    1.23732    4.00418
       H   -14.91812   -7.67204   -0.99313
       O   -15.29442   -6.91365   -1.50580
      H1   -15.22322   -6.17768   -0.87551
       H   -11.77112   -5.90374    3.47494
       O   -11.07164   -5.57993    4.11350
      H1   -11.66732   -5.07324    4.72039
       H   -18.64082   -7.48826    3.52344
       O   -17.94750   -7.74773    2.93445
      H1   -17.27176   -8.15305    3.53252
       H   -18.38557   -3.74545   -2.72379
       O   -19.27795   -4.08334   -2.84517
      H1   -19.46752   -4.34189   -1.96699
       H   -17.06524   -3.22288   11.45471
       O   -17.57385   -3.37291   10.62648
      H1   -18.11897   -4.16152   10.82532
       H   -15.32683    1.51447    7.70371
       O   -15.41170    0.55374    7.62692
      H1   -14.66397    0.22279    7.12197
       H   -14.40158   -1.01167   -3.34397
       O   -14.37897   -1.86612   -3.74185
      H1   -15.20158   -2.26569   -3.49837
       H   -17.61259   -0.92584   11.56752
       O   -18.22376   -0.22580   11.32106
      H1   -17.61056    0.52233   11.29646
       H   -14.87926   -1.91553   11.20029
       O   -14.44211   -1.29292   10.59299
      H1   -14.52424   -1.83536    9.76617
       H   -12.02316   -4.58390   -1.23867
       O   -12.38226   -5.29130   -0.68876
      H1   -11.98108   -5.08865    0.16629
       H   -12.05073   -8.48325    4.52965
       O   -12.45408   -9.13718    3.95859
      H1   -12.33266  -10.01799    4.34469
       H   -19.66730   -0.85761   -2.96590
       O   -18.72076   -0.83909   -2.86479
      H1   -18.54937   -1.57780   -3.46131
       H   -17.22269  -10.61310    2.49962
       O   -16.24382  -10.64007    2.60909
      H1   -16.04446   -9.76064    2.19700
       H   -18.21829   -3.34760    4.92334
       O   -17.52881   -3.45472    4.25372
      H1   -17.06128   -4.10430    4.82535
       H   -13.22611   -5.08180   11.54087
       O   -13.12598   -5.24624   10.58053
      H1   -12.41698   -4.61838   10.27423
       H   -15.37908   -3.22036    7.54776
       O   -14.40883   -2.96387    7.55680
      H1   -14.47444   -2.07521    7.14515
       H   -16.43722   -4.09546   -2.97000
       O   -16.85213   -3.32558   -2.53341
      H1   -16.32406   -3.26261   -1.74449
       H   -14.76026   -5.19242   10.01069
       O   -15.63591   -5.26806    9.55826
      H1   -16.21956   -5.47081   10.32441
       H   -16.36588    1.15455   -3.01403
       O   -17.27106    1.36599   -3.25247
      H1   -17.73143    0.68116   -2.76168
       H   -17.04041    3.39932    6.30811
       O   -17.47581    4.06201    5.80450
      H1   -18.05726    3.45548    5.32460
       H   -16.66622   -1.80512    4.89403
       O   -16.25783   -0.95489    5.17113
      H1   -16.72885   -0.82869    6.05610

