180
frame 10 | Written by MDAnalysis XYZWriter (release 2.4.3)
       H   -13.06010    8.55925  -11.21102
       O   -13.50044    8.32163  -10.35896
      H1   -12.62765    8.17169   -9.90867
       H    -5.89552    2.66282   -5.60363
       O    -5.81213    3.56828   -5.32758
      H1    -5.23637    4.03873   -5.95225
       H   -11.97625    4.13656  -11.96815
       O   -12.11979    3.45768  -12.66578
      H1   -12.80931    3.92670  -13.12291
       H    -9.80866    6.29691  -11.34209
       O   -10.08831    6.78754  -10.62762
      H1   -10.81246    7.32462  -10.96708
       H   -13.01702    4.77139   -8.79776
       O   -13.63451    4.62392   -8.06150
      H1   -13.29298    3.78017   -7.68331
       H    -7.00068    0.43726   -8.48616
       O    -7.08011   -0.27770   -7.83970
      H1    -8.06897   -0.31405   -7.78853
       H   -13.49692    1.13594   -6.55608
       O   -13.52785    2.06513   -6.84711
      H1   -13.91937    1.85511   -7.71362
       H   -10.61173    8.72315   -2.50086
       O   -11.01280    7.77362   -2.51774
      H1   -11.83389    8.08115   -2.98138
       H    -9.73017    2.34343   -1.78499
       O    -9.92055    1.94583   -0.95325
      H1    -9.00962    1.87964   -0.63932
       H    -3.35300    4.77681   -3.95071
       O    -2.67220    5.38121   -4.25127
      H1    -3.02709    5.61721   -5.08578
       H   -13.00137    3.90849   -1.47242
       O   -12.87819    3.52060   -0.58262
      H1   -13.76232    3.30386   -0.33916
       H    -5.48976   11.80198   -7.73543
       O    -4.67925   12.29311   -7.51717
      H1    -5.08495   12.88123   -6.85043
       H    -4.78024    4.67156   -2.19253
       O    -4.53413    3.85338   -2.67584
      H1    -5.15092    3.92523   -3.39261
       H   -12.57882    7.36197   -5.69249
       O   -12.11916    6.56922   -6.09083
      H1   -12.70475    6.37965   -6.87167
       H    -1.97291    2.12578   -6.78842
       O    -2.65907    2.44126   -7.39978
      H1    -2.19953    2.10585   -8.16630
       H    -7.76730    8.75446  -10.66444
       O    -8.34171    9.49637  -10.22819
      H1    -8.03765    9.35430   -9.29922
       H    -9.90865    9.37729   -7.13947
       O    -9.38481    9.85382   -6.43600
      H1    -9.14525    9.11756   -5.88699
       H   -14.80338    6.10149   -7.93511
       O   -14.97414    7.04432   -7.65183
      H1   -15.79532    7.23413   -8.05261
       H    -8.03498    7.61457   -7.40109
       O    -7.36589    7.89579   -8.02141
      H1    -7.26252    7.04061   -8.51060
       H    -6.53369    6.14351   -1.20642
       O    -5.55756    6.10925   -1.57023
      H1    -5.24387    6.79583   -0.91841
       H    -8.76606   -0.27775  -10.98401
       O    -9.40095    0.45464  -10.88826
      H1   -10.11803    0.11442  -11.45906
       H    -6.20897    9.76815   -1.93899
       O    -7.09363    9.75371   -1.54363
      H1    -6.93118   10.17286   -0.67150
       H   -11.06786   10.54197   -6.50921
       O   -11.92432   10.75386   -6.06342
      H1   -12.57166   10.55351   -6.78337
       H    -9.37248    4.01389  -13.50615
       O    -9.30085    4.89430  -13.18034
      H1   -10.23486    5.28579  -13.33384
       H    -9.39482   -0.71849   -3.29264
       O    -8.83451   -0.82764   -4.12041
      H1    -7.96572   -0.78679   -3.62047
       H    -6.19934    0.17876   -2.48939
       O    -6.31077   -0.73058   -2.81508
      H1    -5.78702   -1.22611   -2.15816
       H    -7.10011    7.94055  -12.98279
       O    -6.98021    8.04294  -12.05334
      H1    -6.06455    8.35287  -11.85536
       H   -11.20052    5.27864   -4.98319
       O   -11.02273    4.56129   -4.40285
      H1   -10.08285    4.62422   -4.34688
       H    -9.39385   -0.54083   -5.81960
       O    -9.81071   -0.39915   -6.69496
      H1    -9.98617    0.55307   -6.63626
       H    -1.10265    7.69151   -3.45934
       O    -0.94018    6.97445   -2.82364
      H1    -1.57557    6.28100   -3.08702
       H    -5.77479    2.44410   -1.88022
       O    -6.64361    2.04653   -1.71614
      H1    -6.64024    1.97530   -0.74856
       H    -4.91283   -1.44294   -4.25984
       O    -4.62456   -0.80261   -4.94465
      H1    -5.39845   -0.26905   -4.99210
       H    -5.88628    4.55557   -8.32216
       O    -6.75222    4.85765   -8.55915
      H1    -6.65679    4.95222   -9.50138
       H   -10.15670    6.97433   -6.18982
       O    -9.26097    7.24867   -6.10769
      H1    -9.03158    7.08115   -5.14200
       H    -9.14428    5.26861   -0.10611
       O    -9.67612    4.66975    0.44996
      H1    -9.78402    3.90125   -0.15159
       H   -10.47447    2.71462   -8.65938
       O   -10.23668    2.94765   -9.56640
      H1    -9.95553    2.04372   -9.87439
       H    -4.58272   10.03520   -8.62297
       O    -4.77408    9.14999   -9.03366
      H1    -5.61792    8.97924   -8.65101
       H    -4.09845    9.81292   -3.34538
       O    -5.00283   10.00070   -3.49503
      H1    -4.90674    9.72826   -4.42998
       H    -7.87254    3.72794   -2.13516
       O    -8.74397    3.96886   -2.41431
      H1    -8.65726    4.85119   -2.81929
       H    -7.85727    5.22622  -11.64750
       O    -6.92777    5.38643  -11.45516
      H1    -6.79735    6.28856  -11.70690
       H    -9.14516   12.21648   -4.98143
       O    -9.06573   12.28773   -4.03902
      H1    -9.56762   11.55125   -3.64285
       H   -11.45485    4.15128  -10.23747
       O   -12.07010    4.86581  -10.42755
      H1   -11.48637    5.62163  -10.53616
       H   -10.05199    3.39036   -6.48225
       O   -10.37326    2.52152   -6.86973
      H1   -11.31841    2.73406   -6.72004
       H   -11.09874    9.38322   -9.23708
       O   -11.10352    8.55042   -8.75343
      H1   -10.47978    7.92277   -9.06784
       H    -7.93633    7.12033    0.89719
       O    -7.65746    6.98571    0.00506
      H1    -7.54131    7.90053   -0.34929
       H    -8.02629    2.64640   -9.12500
       O    -7.36189    2.05731   -9.54823
      H1    -7.89627    1.65497  -10.22138
       H   -12.84324    7.42691   -0.39271
       O   -12.40722    8.32082   -0.43047
      H1   -11.79689    8.11571   -1.13995
       H    -2.04632    7.25579   -8.26230
       O    -2.93018    7.28231   -7.85527
      H1    -3.40598    7.98168   -8.28451
       H    -3.19966    4.90906  -11.41370
       O    -2.75829    4.07758  -11.47182
      H1    -3.45749    3.48293  -11.07439
       H    -3.52442    4.29937   -7.57976
       O    -4.25578    4.87984   -7.29981
      H1    -3.92166    5.66684   -7.65463
       H   -12.65269    9.43506   -5.17385
       O   -13.00755    8.69915   -4.60687
      H1   -13.93292    8.90769   -4.58219
       H    -3.47902    0.94829   -7.61534
       O    -3.77489    0.16042   -8.20202
      H1    -4.50132   -0.23297   -7.71967
       H   -12.59015    4.48415   -3.63689
       O   -13.31043    4.77450   -2.99864
      H1   -14.01398    4.18731   -3.29384
       H    -9.53437    7.08984   -2.89469
       O    -8.63898    6.85154   -3.12717
      H1    -8.16874    7.42247   -2.46884
       H    -4.93670    2.07121  -11.48965
       O    -4.81899    2.58666  -10.62236
      H1    -5.68636    2.50745  -10.20284
       H    -7.12933    0.50383   -6.41171
       O    -7.21521    1.05510   -5.59401
      H1    -7.87736    0.52650   -5.17952
       H    -7.64875   10.42188   -7.10687
       O    -7.09954   10.90757   -7.67186
      H1    -7.81385   11.36495   -8.17356
       H   -10.08602   10.58494   -1.43870
       O    -9.73719   10.28630   -2.30500
      H1    -8.79561   10.27763   -1.97754
       H    -7.71480    3.96405   -5.29779
       O    -8.50263    4.37423   -5.68848
      H1    -8.13212    5.20238   -6.09284
       H    -1.78740    8.46226   -5.27354
       O    -0.87797    8.47266   -5.56935
      H1    -0.48568    9.26351   -5.16072

