180
frame 5 | Written by MDAnalysis XYZWriter (release 2.4.3)
       H    10.85357  -12.68347   -4.42313
       O     9.86889  -12.67240   -4.47653
      H1     9.74219  -12.41679   -5.41213
       H    13.22320  -14.58879   -2.89381
       O    13.42270  -15.33889   -2.32615
      H1    12.77536  -15.97896   -2.72026
       H     8.26273   -9.16838   -2.41030
       O     8.10116   -8.58725   -1.61614
      H1     7.40823   -9.00861   -1.03589
       H     8.30022  -17.76147  -10.34303
       O     7.32210  -17.66060  -10.57188
      H1     7.32626  -18.05275  -11.42128
       H     3.96580  -14.45706   -2.53265
       O     4.51778  -13.60805   -2.64704
      H1     5.41895  -13.97827   -2.70302
       H    12.68758   -8.80127   -6.96459
       O    13.62452   -8.74311   -7.27578
      H1    13.89221   -7.83198   -6.91210
       H    12.40049  -10.57870   -8.76926
       O    12.75464  -11.22350   -8.10254
      H1    13.45677  -10.64039   -7.76346
       H    11.13685  -16.21422   -4.20880
       O    11.51883  -16.79089   -3.55890
      H1    11.85170  -17.45127   -4.22529
       H     7.51593   -5.82362   -4.21293
       O     8.16026   -6.20468   -4.82365
      H1     7.72329   -7.01592   -5.17920
       H     3.23338  -16.79770   -9.12542
       O     4.03206  -17.02222   -8.71723
      H1     4.50499  -17.52823   -9.36918
       H    13.14006  -12.00045   -0.47005
       O    12.69849  -11.42913   -1.09589
      H1    11.76388  -11.51431   -0.82781
       H    12.31065  -17.40529   -7.37749
       O    12.90297  -16.83474   -6.82266
      H1    12.84406  -17.21403   -5.92110
       H     9.30486  -15.45296   -4.80862
       O    10.06789  -15.23942   -5.41475
      H1    10.26343  -14.33566   -5.12732
       H     8.16746  -15.32904   -7.75985
       O     8.84229  -16.03902   -7.59707
      H1     9.31072  -15.68995   -6.77840
       H     8.06359  -11.69320   -7.04361
       O     7.11438  -11.79330   -7.12909
      H1     6.92401  -10.99495   -7.61187
       H    10.34660   -9.79681  -10.14223
       O    11.18631  -10.26797  -10.22587
      H1    10.90676  -11.18902  -10.05301
       H     3.66469  -12.79945   -9.04662
       O     2.75389  -12.65183   -8.78621
      H1     2.83611  -12.19695   -7.93722
       H     8.37771   -5.30891   -6.47104
       O     8.52514   -4.56707   -7.03173
      H1     9.39232   -4.22143   -6.75780
       H     3.42881   -8.47139   -7.48030
       O     3.24106   -8.01792   -8.32399
      H1     3.44817   -8.79645   -8.85816
       H     7.51119  -16.72918   -3.07391
       O     8.00560  -16.24117   -3.83068
      H1     7.31206  -16.00436   -4.47654
       H    11.24747  -15.99647  -10.87104
       O    11.19395  -15.45893  -11.68864
      H1    12.16241  -15.36429  -11.89762
       H     5.52288   -8.73282   -5.91023
       O     4.81295   -9.19047   -5.44105
      H1     4.99136   -8.82370   -4.53008
       H     2.10821  -13.94700   -7.56891
       O     1.62160  -14.71404   -7.21851
      H1     0.71374  -14.36934   -7.07402
       H     5.40524  -14.90242  -11.56886
       O     5.84446  -15.59662  -12.03628
      H1     6.44180  -15.99189  -11.35704
       H    10.34515  -12.51429   -7.42508
       O     9.83395  -11.78088   -7.07583
      H1    10.52854  -11.12243   -6.98324
       H    13.25718  -12.46313   -4.20538
       O    12.69493  -12.83510   -3.46350
      H1    12.77363  -12.12980   -2.80006
       H     6.61153  -13.46467   -7.77124
       O     6.59035  -14.36779   -8.11185
      H1     6.08079  -14.64566   -7.33920
       H    15.76214  -10.90780   -7.09878
       O    15.51443  -10.56345   -6.24199
      H1    14.88943   -9.80796   -6.44715
       H     7.08755  -18.08232   -7.30753
       O     6.59939  -18.30920   -6.55115
      H1     5.69861  -18.12088   -6.87453
       H    10.55973  -18.08078   -9.46939
       O     9.94673  -17.40335   -9.71682
      H1     9.78623  -17.06574   -8.82156
       H    10.97560   -5.96809   -8.83485
       O    10.35543   -6.33018   -8.16931
      H1     9.65677   -5.68090   -8.10056
       H     9.93709   -6.67280   -4.45002
       O    10.73253   -7.19004   -4.21898
      H1    10.81784   -7.10870   -3.29730
       H     9.33508   -7.92534   -9.32094
       O     9.08609   -8.65142   -9.87526
      H1     8.65187   -8.23823  -10.68395
       H     7.29147   -8.45681  -12.48124
       O     8.22877   -8.36663  -12.33229
      H1     8.44581   -7.81440  -13.12581
       H     3.79331  -10.68953   -5.71459
       O     3.45451  -11.60300   -5.90772
      H1     2.56428  -11.59668   -5.62508
       H     2.89843  -14.70490   -4.66002
       O     3.13862  -15.53704   -5.06044
      H1     2.65630  -15.38776   -5.86835
       H     9.16937  -11.00661   -3.98856
       O     8.37563  -10.51567   -3.68150
      H1     7.79111  -11.26079   -3.67907
       H    10.68744   -7.87840   -7.12082
       O    10.94738   -8.70757   -6.72640
      H1    10.84324   -8.53919   -5.78969
       H     8.72379  -12.83226   -2.49003
       O     8.71759  -13.54888   -1.86750
      H1     8.60523  -14.27168   -2.49749
       H     9.08165  -19.67508   -5.71298
       O     9.40174  -19.01419   -5.02940
      H1     9.06382  -18.16811   -5.28064
       H    11.88593  -13.81661   -8.24990
       O    10.89645  -13.87298   -8.20768
      H1    10.91004  -14.81796   -8.05517
       H     8.22922  -11.74372  -13.93590
       O     7.48103  -12.40885  -13.85625
      H1     7.58129  -12.76816  -12.92848
       H     9.22665  -10.20743   -0.75977
       O     9.94650  -10.84542   -0.64472
      H1     9.36154  -11.62187   -0.48879
       H     4.19528   -6.37607   -8.59472
       O     4.76781   -5.57872   -8.54422
      H1     4.15335   -5.02930   -9.04136
       H     4.70004   -8.20882   -2.17495
       O     4.91779   -8.88171   -2.85757
      H1     4.04950   -9.40806   -2.76920
       H    10.85067  -12.27204  -12.46514
       O    11.27084  -11.81479  -13.18896
      H1    12.12028  -12.24916  -13.13110
       H     5.79529   -6.47922   -9.56908
       O     6.31082   -7.01188  -10.14673
      H1     5.59916   -7.26865  -10.80540
       H     5.27760   -9.96020    0.11776
       O     5.95275   -9.80128   -0.51921
      H1     5.53612   -9.50686   -1.35048
       H    13.63031  -13.20162   -7.66465
       O    13.58624  -14.00483   -8.22796
      H1    13.71625  -14.75146   -7.61570
       H     5.13606  -11.89879   -4.16361
       O     6.10919  -11.92317   -4.24340
      H1     6.23263  -12.05087   -5.22082
       H     4.25575  -10.40708  -10.55201
       O     3.63494  -10.25415   -9.80966
      H1     3.34601  -11.17763   -9.65259
       H     3.81527  -11.53488   -2.52292
       O     3.10574  -10.87329   -2.71226
      H1     2.49928  -11.39000   -3.28419
       H     5.61667  -16.58905   -5.90580
       O     5.70073  -15.65301   -5.66670
      H1     4.70767  -15.50624   -5.63252
       H    13.97402  -10.24708  -10.32064
       O    13.56853  -10.18989  -11.19864
      H1    12.62170  -10.27618  -10.88406
       H     5.73446  -13.38483  -10.01690
       O     4.81793  -13.73654  -10.20995
      H1     4.78385  -14.42716   -9.55286
       H     7.70211   -9.04688   -9.19736
       O     6.82692   -9.39981   -8.87247
      H1     6.11651   -8.80389   -9.21428
       H     7.38939   -8.78248   -7.16891
       O     7.38616   -8.42709   -6.27817
      H1     7.56468   -9.19858   -5.74357
       H    10.22062  -13.50750   -9.81401
       O    10.04753  -13.23996  -10.71846
      H1    10.44443  -14.01415  -11.19433
       H     8.34085  -12.63418  -10.89939
       O     7.42294  -12.37543  -11.09265
      H1     7.51137  -11.40136  -11.07825
       H     4.73982  -10.62447  -12.92510
       O     5.16880  -10.70742  -12.04462
      H1     5.51603  -11.58427  -12.07929

