180
frame 4 | Written by MDAnalysis XYZWriter (release 2.4.3)
       H     3.60054  -11.63919   17.50865
       O     3.96972  -10.81607   17.81390
      H1     3.41113  -10.67213   18.54981
       H    11.90750  -15.92912   16.03557
       O    11.69209  -16.03229   17.00874
      H1    10.97228  -15.43180   17.11226
       H    -0.45072  -13.30641   18.10295
       O     0.26879  -12.67864   18.34618
      H1    -0.17736  -11.88166   18.04661
       H     9.10484  -14.52756   16.21258
       O     9.09792  -14.87698   17.13545
      H1     9.12254  -14.08167   17.73622
       H     4.38178  -10.67574   12.05741
       O     3.73526   -9.97960   11.91257
      H1     2.90238  -10.41065   12.06652
       H    -1.77384   -8.00755   16.25959
       O    -1.19076   -7.26325   16.38216
      H1    -1.12414   -6.95226   15.42198
       H     2.91184  -17.38824   15.96696
       O     2.16352  -17.97686   15.94918
      H1     2.29918  -18.14485   14.96232
       H     7.86751  -18.09795   13.16586
       O     7.72857  -17.82969   14.11536
      H1     6.91823  -18.28024   14.37846
       H    12.77685  -13.11062   18.79087
       O    11.97058  -12.84081   19.26213
      H1    12.31208  -12.74298   20.15347
       H     6.52298   -7.77425   18.51096
       O     6.04929   -8.61768   18.59676
      H1     5.76336   -8.71929   17.67949
       H     2.68383  -17.64469   13.08017
       O     2.67855  -18.58146   13.37195
      H1     1.97213  -18.88787   12.77470
       H     5.77064   -4.71598   17.94335
       O     5.08679   -5.32607   17.51330
      H1     4.90803   -4.90442   16.58810
       H     0.35480   -6.76857   17.27344
       O     1.25591   -6.92440   17.59098
      H1     1.71176   -7.69450   17.13192
       H     5.55495  -11.93611   13.29068
       O     5.64819  -11.74158   12.32739
      H1     5.33314  -12.60618   11.96094
       H     6.27168   -6.56223   16.71416
       O     7.03014   -7.10334   16.54784
      H1     6.66750   -7.99393   16.61728
       H     8.71215   -6.08138   16.76643
       O     9.43189   -5.41173   16.99030
      H1     9.26327   -5.10341   17.86924
       H    11.35346  -13.94991   14.59193
       O    12.21476  -13.49399   14.57597
      H1    12.62601  -13.71386   15.40890
       H    10.00169   -9.48144   18.77334
       O     9.49060   -9.34721   19.57946
      H1     9.29302  -10.20665   19.84268
       H     8.91125   -9.99623   11.32691
       O     8.39396   -9.14817   11.62894
      H1     7.49204   -9.35113   11.28913
       H     9.08622  -13.50548   14.01641
       O     9.24203  -14.38867   14.35689
      H1     9.71317  -14.81309   13.63506
       H     5.01193  -17.79318   16.09956
       O     5.45759  -18.59645   15.76243
      H1     5.85876  -18.90789   16.57468
       H     9.95866  -10.27427   15.89668
       O     9.17663   -9.96373   15.42427
      H1     8.51862  -10.35702   16.06906
       H     0.78139  -16.51050   15.94655
       O     0.64226  -15.60532   16.24424
      H1    -0.14851  -15.66030   16.81528
       H     3.71756  -13.33343   18.42377
       O     2.96967  -13.39982   17.80639
      H1     2.13708  -13.31814   18.32330
       H    -1.63639  -15.13066   18.64786
       O    -1.53908  -14.66368   17.80879
      H1    -2.34251  -14.77484   17.26181
       H     5.78628  -19.25861   18.79460
       O     5.81300  -18.29675   18.53349
      H1     4.97169  -18.19178   18.13943
       H     2.64917  -12.07045   14.19957
       O     2.90229  -11.81240   15.09179
      H1     2.20061  -12.25880   15.59750
       H     2.43258  -10.04344   15.94824
       O     1.97865   -9.22641   16.14304
      H1     2.12111   -8.75137   15.28074
       H     4.56965   -8.93580   15.35776
       O     5.13631   -9.42206   15.96676
      H1     4.44484   -9.78073   16.60094
       H     3.23097   -7.01930   14.34597
       O     3.71398   -7.90601   14.20058
      H1     3.26310   -8.23155   13.36449
       H     2.09063  -16.38592   19.34441
       O     1.29895  -15.91924   18.95973
      H1     1.44723  -16.10296   18.02064
       H     0.65689  -14.13756   15.30469
       O     0.62868  -13.30458   14.77945
      H1     0.57961  -13.66811   13.85616
       H     5.02443  -14.29341   10.72542
       O     4.37212  -13.84969   11.25006
      H1     4.02067  -13.18726   10.62433
       H     7.99534  -15.05887   10.81919
       O     7.09219  -14.73297   10.72261
      H1     6.91535  -14.50730   11.66455
       H     5.64014  -13.77331   19.77424
       O     5.52518  -13.21983   18.99429
      H1     5.58176  -12.30606   19.33503
       H    10.35104  -18.54226   15.70723
       O     9.67183  -19.19592   15.47923
      H1     9.03791  -18.56341   15.03632
       H     1.58655  -12.11724   11.26569
       O     1.75736  -12.06059   12.26836
      H1     0.88439  -12.51143   12.45016
       H    -2.48976   -9.17203   18.76217
       O    -2.68998  -10.13005   18.75612
      H1    -2.21738  -10.29883   17.91935
       H    12.54666   -5.03008   17.18336
       O    12.26729   -5.61766   16.45090
      H1    11.33557   -5.78910   16.61819
       H     8.80464  -11.15630   13.74075
       O     8.45927  -11.83013   13.12118
      H1     7.55228  -11.49741   13.07850
       H     9.50800   -7.09376   13.77136
       O     8.87893   -6.75818   13.09024
      H1     8.85318   -7.54268   12.51568
       H    -2.05278  -11.50246   14.85925
       O    -1.22562  -11.21557   14.34959
      H1    -0.66059  -11.88065   14.83297
       H     1.73287   -5.78298   16.05705
       O     2.01673   -5.70015   15.15045
      H1     2.75167   -5.07489   15.38286
       H     6.89006  -12.09475   17.23549
       O     7.56517  -11.44937   17.22071
      H1     8.19869  -11.80182   17.88445
       H    12.46446  -17.42457   18.10172
       O    12.95176  -18.15643   18.48334
      H1    12.53569  -18.05176   19.41095
       H    -0.75802  -10.28471   15.88398
       O    -0.52710  -10.11955   16.82171
      H1     0.31078   -9.63685   16.76857
       H    12.24620   -7.44556   16.88858
       O    12.56813   -8.39036   17.03007
      H1    12.94176   -8.49686   16.13764
       H     8.95260  -11.66016   11.38902
       O     9.51118  -11.47929   10.57885
      H1     8.92041  -11.81190    9.92319
       H     5.05947  -15.58073   16.61486
       O     4.30032  -16.13170   16.72623
      H1     3.68021  -15.50134   17.12347
       H    11.68041   -9.76075   17.55376
       O    11.10390  -10.50235   17.79921
      H1    11.69343  -11.09894   18.23369
       H    11.37755   -7.99430   14.72297
       O    10.68491   -7.38854   15.04938
      H1     9.90420   -8.00017   15.27705
       H     4.61840  -15.70600   13.15420
       O     3.66283  -15.90535   13.06311
      H1     3.47284  -15.25899   12.39373
       H     4.60060  -11.93978   15.25285
       O     5.54232  -12.05084   15.13477
      H1     5.89414  -11.24942   15.51788
       H     1.94761   -5.17861   18.78878
       O     2.64398   -4.52466   18.77708
      H1     3.37431   -4.95446   18.28772
       H     4.20790   -3.51398   15.13120
       O     4.38358   -4.49054   15.14021
      H1     5.10985   -4.44665   14.49005
       H    13.23388  -14.56639   17.35974
       O    13.47861  -13.72170   16.87589
      H1    14.41271  -13.50044   17.15547
       H     7.19993  -14.76433   16.49074
       O     6.42576  -14.61720   15.94334
      H1     6.26311  -13.68409   15.93621
       H     8.16406  -16.47686   17.61719
       O     8.18208  -17.03521   18.45559
      H1     7.37374  -17.52138   18.38348
       H     6.19835   -6.49909   13.45254
       O     5.43634   -6.39124   12.85609
      H1     4.87682   -6.93271   13.41913
       H     6.29618  -15.18549   14.21743
       O     6.42363  -15.59318   13.39348
      H1     6.92140  -16.40364   13.60908

