180
frame 10 | Written by MDAnalysis XYZWriter (release 2.4.3)
       H   -11.44256  -17.82652   -6.86648
       O   -11.78456  -18.13125   -7.74528
      H1   -11.63526  -19.06076   -7.64483
       H   -19.32783  -10.18701  -13.89645
       O   -19.51633  -10.09982  -14.82792
      H1   -18.80295   -9.52471  -15.16789
       H   -15.25228  -13.07058   -9.26212
       O   -15.78067  -13.09787   -8.42021
      H1   -15.74785  -14.01001   -8.25537
       H   -12.02444  -15.36592  -14.05748
       O   -11.81866  -15.55784  -15.01132
      H1   -12.34657  -16.36561  -15.15230
       H   -13.29891   -7.73682  -12.29776
       O   -12.67692   -8.29834  -12.72588
      H1   -13.03303   -8.63810  -13.53955
       H    -9.50302  -12.29685  -12.08541
       O    -9.16836  -11.99701  -12.97501
      H1    -8.35972  -12.59323  -13.06420
       H   -13.43298  -18.66224   -7.71014
       O   -14.35513  -18.97475   -7.63681
      H1   -14.32162  -19.60365   -8.35902
       H   -13.15468  -11.90886  -10.01507
       O   -13.59087  -12.72374  -10.20440
      H1   -12.84071  -13.32930   -9.99367
       H    -9.84313   -9.94983  -17.65882
       O   -10.26279  -10.65826  -18.20095
      H1   -11.20135  -10.30135  -18.07615
       H   -18.14186  -16.36328  -18.49554
       O   -18.32083  -15.45275  -18.13125
      H1   -18.54027  -15.14260  -19.04202
       H   -12.84101  -16.34819  -19.89171
       O   -13.26013  -16.51499  -19.08745
      H1   -12.87570  -15.86914  -18.47843
       H   -18.29941   -7.73757   -9.53908
       O   -19.07080   -7.90864  -10.15305
      H1   -19.32705   -8.75569   -9.72380
       H   -11.04461  -17.56746   -9.33506
       O   -10.48246  -17.11966   -9.98078
      H1   -10.81153  -16.24264   -9.80926
       H   -12.73619  -18.33462  -18.00668
       O   -12.91867  -18.77483  -17.15744
      H1   -12.04538  -19.23808  -17.09225
       H   -14.22047  -16.74050  -13.83501
       O   -13.62892  -17.54503  -13.87989
      H1   -13.32031  -17.64378  -12.94312
       H   -15.91929  -12.65753  -12.86924
       O   -16.04572  -12.76714  -11.90946
      H1   -15.09355  -12.54286  -11.64194
       H   -17.47558  -12.95944  -15.18801
       O   -16.57227  -12.83282  -14.74864
      H1   -16.29985  -13.69869  -15.12458
       H   -15.70189  -11.30199  -14.70639
       O   -15.29426  -10.42832  -14.73263
      H1   -15.69341  -10.05344  -13.94179
       H   -12.42097  -11.66708  -11.53567
       O   -12.53611  -11.23174  -12.40646
      H1   -12.22395  -10.32368  -12.19071
       H   -17.72354   -8.08547  -12.62072
       O   -17.52775   -7.15877  -12.84599
      H1   -18.15815   -6.64951  -12.28531
       H   -18.51768  -15.95786  -11.63338
       O   -19.43137  -16.26411  -11.94063
      H1   -19.18400  -17.14995  -12.20451
       H   -17.10903   -8.71154   -8.25675
       O   -16.87924   -7.79850   -8.34091
      H1   -16.16127   -7.77419   -7.70806
       H   -12.71298  -10.41986   -8.27965
       O   -12.50742  -10.25203   -9.22506
      H1   -11.72638   -9.71215   -9.34460
       H   -14.20505  -10.57963  -11.67065
       O   -14.71630   -9.97325  -11.12924
      H1   -14.12087   -9.86413  -10.38440
       H   -19.91657  -14.80398   -7.87599
       O   -19.03713  -14.69998   -7.59628
      H1   -18.80444  -15.53512   -7.16025
       H   -13.16580  -13.73124  -17.52604
       O   -13.82508  -13.82137  -18.22048
      H1   -14.13504  -12.90208  -18.13709
       H   -15.61588  -16.67671  -17.14795
       O   -15.90956  -17.55696  -17.46343
      H1   -15.12467  -18.13222  -17.26691
       H   -18.15448  -13.55521   -8.77444
       O   -18.31595  -13.25496   -9.72937
      H1   -17.92151  -12.40490   -9.76740
       H   -11.91969  -10.92283  -14.19165
       O   -11.23983  -11.07268  -14.89001
      H1   -10.41705  -11.18120  -14.36962
       H   -13.24261  -14.47741  -12.29189
       O   -12.30056  -14.65992  -12.48239
      H1   -12.03253  -13.79683  -12.65869
       H   -16.78373  -18.34161  -15.75960
       O   -17.37588  -18.20522  -15.01015
      H1   -17.41730  -19.18580  -14.73497
       H   -18.81792  -16.86289   -9.64863
       O   -18.13751  -17.49776   -9.43305
      H1   -18.55370  -18.04079   -8.65560
       H   -16.05423  -16.58840  -13.91097
       O   -15.81607  -15.70547  -13.60054
      H1   -16.43191  -15.02556  -14.08423
       H   -12.27476  -19.90295  -13.89550
       O   -11.31292  -19.68830  -13.80376
      H1   -11.28396  -18.74898  -13.96440
       H   -13.40534   -8.57960  -17.54936
       O   -13.03942   -9.22425  -18.16744
      H1   -13.77096   -9.86860  -18.31102
       H   -17.01783  -19.32089  -11.65379
       O   -16.47970  -19.12589  -10.86803
      H1   -16.98419  -18.62930  -10.26049
       H    -9.46012  -13.83333  -10.88819
       O   -10.14170  -13.10476  -10.85838
      H1    -9.71095  -12.44302  -10.27540
       H   -16.40737   -9.81151  -12.06863
       O   -17.19600   -9.85982  -12.54974
      H1   -17.67522  -10.68741  -12.44631
       H   -17.48385  -10.31609  -17.61016
       O   -17.40278  -11.14220  -18.14502
      H1   -17.89703  -11.75842  -17.60933
       H   -16.31623   -9.24195  -15.81368
       O   -16.98374   -8.67502  -16.23933
      H1   -16.54330   -7.82976  -16.17391
       H   -16.66573  -14.74467  -11.86578
       O   -17.05020  -15.22651  -11.07231
      H1   -17.26297  -14.42275  -10.55145
       H   -19.21705  -16.22791  -16.81092
       O   -19.45720  -16.61318  -15.98776
      H1   -18.66664  -16.92540  -15.57196
       H   -13.41526  -17.74451  -11.09643
       O   -12.54541  -18.01941  -11.42228
      H1   -11.95909  -17.36480  -11.01676
       H   -15.07158  -16.41718   -6.05486
       O   -14.63166  -17.22677   -5.77602
      H1   -14.79117  -17.74923   -6.55033
       H   -11.70383  -12.63420  -16.04648
       O   -11.77140  -13.44566  -16.56704
      H1   -11.69212  -14.07898  -15.79769
       H    -9.27741  -17.21258  -12.51921
       O    -8.58366  -17.32735  -11.78395
      H1    -9.16255  -17.38640  -11.01241
       H   -14.01096  -11.66964   -6.56662
       O   -13.38751  -10.93123   -6.63006
      H1   -13.63115  -10.37274   -5.88990
       H   -18.35878  -11.07750   -6.74332
       O   -18.16073  -10.31064   -7.30519
      H1   -18.80269   -9.76183   -6.84259
       H   -14.65084  -11.29909  -19.36112
       O   -14.74220  -11.31235  -18.34421
      H1   -15.70800  -11.53834  -18.26542
       H   -19.44916  -19.35601  -12.50773
       O   -18.73066  -18.63756  -12.65926
      H1   -18.70848  -18.68887  -13.62721
       H   -15.40529  -17.46596  -10.77691
       O   -14.92846  -16.76411  -10.27191
      H1   -15.37158  -15.99425  -10.67012
       H   -16.42037  -15.15601  -17.07969
       O   -15.63138  -14.92631  -16.60619
      H1   -15.01505  -14.55337  -17.25474
       H   -15.92308  -16.30632   -8.80324
       O   -16.08402  -15.89519   -7.95742
      H1   -16.80175  -16.50852   -7.76422
       H   -15.78940   -6.99231  -11.98769
       O   -14.97366   -6.68464  -11.69616
      H1   -14.95402   -5.90398  -12.18657
       H   -12.31230  -15.14037   -7.93058
       O   -11.65988  -14.87741   -8.55477
      H1   -10.82260  -14.65902   -8.06074
       H   -17.95265  -18.47275  -18.94416
       O   -18.13385  -17.71355  -19.49087
      H1   -17.28335  -17.43467  -19.80537
       H    -9.40958  -17.17699  -14.93525
       O   -10.01393  -17.26276  -14.09643
      H1   -10.70132  -16.56713  -14.41242
       H   -19.23119  -11.74520  -15.42731
       O   -18.99378  -12.52337  -15.96350
      H1   -19.85591  -12.83460  -16.38488
       H   -15.99965  -11.66429   -5.62706
       O   -15.67161  -12.55702   -5.54143
      H1   -15.84956  -13.02523   -6.35094
       H   -12.35919   -9.06472  -16.07595
       O   -12.17259   -8.25157  -15.65747
      H1   -11.40806   -7.98437  -16.15240

