180
frame 45 | Written by MDAnalysis XYZWriter (release 2.4.3)
       H    -6.72527   -6.09957  -16.04354
       O    -7.07578   -6.60528  -15.30490
      H1    -6.44152   -6.33036  -14.62285
       H   -17.20695    0.98422  -18.70970
       O   -17.78524    1.48528  -19.19728
      H1   -18.41065    0.73814  -19.36968
       H   -14.15150    1.00926  -10.84297
       O   -13.97479    1.70262  -10.16229
      H1   -13.11994    1.89444  -10.53936
       H    -6.77953   -4.78176  -18.12123
       O    -6.26686   -5.16171  -17.37027
      H1    -6.28072   -6.14824  -17.53515
       H   -15.71882    0.65139  -16.29737
       O   -16.03476    0.81897  -17.21568
      H1   -15.64114    1.73618  -17.34924
       H   -16.64438   -6.70682  -14.96537
       O   -17.16379   -5.93193  -15.27218
      H1   -16.52302   -5.20277  -15.17591
       H   -14.41174   -4.84515   -9.69023
       O   -13.68115   -5.49969   -9.72919
      H1   -12.91098   -4.94481   -9.88488
       H    -4.13403    1.25290  -15.70271
       O    -4.62095    1.89114  -15.19439
      H1    -5.51254    1.66599  -15.35320
       H   -13.00376   -7.43968  -18.93502
       O   -13.14636   -6.62284  -19.41064
      H1   -13.14780   -5.95017  -18.70949
       H    -9.36817   -2.79101  -10.14459
       O    -9.10386   -3.36498  -10.88781
      H1    -9.84078   -3.99834  -10.83114
       H    -4.77769   -1.65007  -16.76513
       O    -5.52235   -1.55319  -17.45186
      H1    -5.11705   -0.86025  -18.03352
       H   -11.78717   -3.52054   -8.30095
       O   -12.41328   -2.80472   -8.44905
      H1   -13.01797   -2.90009   -7.74628
       H   -11.92007   -3.62449  -11.70014
       O   -11.58076   -4.48026  -11.40066
      H1   -10.94131   -4.71165  -12.12928
       H   -10.35088    2.56735  -18.67781
       O   -11.21997    3.01055  -18.75923
      H1   -11.11328    3.56960  -19.49617
       H    -8.66212   -5.65106  -13.13549
       O    -9.58530   -5.98936  -13.33314
      H1    -9.44651   -6.29676  -14.23670
       H    -9.64589   -5.91876  -16.17997
       O   -10.17045   -6.73315  -15.90269
      H1   -11.01764   -6.30592  -15.62721
       H    -8.36085    0.36814  -14.95648
       O    -9.20632    0.33660  -15.41598
      H1    -8.92872    0.77916  -16.23227
       H    -8.32574    1.56316  -19.27835
       O    -8.27763    2.39707  -19.77763
      H1    -7.58799    2.84962  -19.24429
       H   -12.80454   -0.76369   -8.82673
       O   -13.10857   -0.04382   -8.21083
      H1   -13.38211    0.68116   -8.76415
       H    -8.63231    2.43237  -12.83858
       O    -8.36852    2.00224  -12.03322
      H1    -8.94403    1.28806  -11.92375
       H    -9.66437   -3.23929  -15.01911
       O   -10.33200   -3.49385  -15.61196
      H1    -9.95333   -3.31806  -16.47898
       H   -14.93180   -2.66316  -13.47060
       O   -15.15677   -1.73713  -13.57637
      H1   -15.98754   -1.72079  -14.08181
       H   -15.77768    2.94992  -10.95970
       O   -16.62112    2.58553  -11.30842
      H1   -16.49056    2.27223  -12.23520
       H   -13.96973    0.84956  -15.67507
       O   -14.47162    0.73554  -14.85054
      H1   -14.03702   -0.05013  -14.48716
       H   -12.00450   -9.19976  -16.92488
       O   -12.01217   -8.39327  -17.44268
      H1   -11.48746   -7.86153  -16.80569
       H    -9.83026   -5.54733  -18.79471
       O    -9.84163   -4.59490  -18.46796
      H1    -9.17229   -4.17082  -19.08080
       H    -6.81759   -1.03648  -14.60183
       O    -6.74076   -0.02904  -14.57790
      H1    -5.82580    0.05621  -14.27135
       H   -13.72377   -3.03858  -18.70414
       O   -14.12400   -3.87452  -18.40216
      H1   -14.41173   -3.69276  -17.51149
       H   -17.54310   -5.90116  -17.15564
       O   -17.70206   -6.21523  -18.08732
      H1   -18.68842   -6.30946  -18.08541
       H    -6.96059   -5.78520  -11.47683
       O    -6.82855   -5.39969  -12.34831
      H1    -6.86217   -4.43055  -12.05237
       H    -6.87708   -9.20865  -16.20411
       O    -7.74961   -8.96821  -16.44696
      H1    -7.91595   -8.21565  -15.86394
       H    -8.55096   -0.21499  -18.54399
       O    -7.97714    0.28161  -17.98603
      H1    -7.18741   -0.31390  -17.98483
       H   -16.05768   -3.74918  -10.26265
       O   -15.73484   -3.73154   -9.38607
      H1   -16.20582   -4.40406   -8.82160
       H   -15.70799    1.84840  -14.26464
       O   -16.50287    2.23573  -13.87941
      H1   -17.12649    1.47076  -14.13019
       H    -9.48648   -0.75344   -8.80939
       O    -8.89240   -1.53965   -8.76753
      H1    -8.80199   -1.73530   -7.83601
       H   -13.19981   -6.68581  -16.15843
       O   -12.81669   -6.42764  -15.32928
      H1   -13.13201   -7.11301  -14.65285
       H   -10.73563    0.72923  -13.04226
       O   -10.41651    0.05851  -12.39598
      H1    -9.93532   -0.53462  -12.94076
       H   -17.13151   -2.99898  -16.53706
       O   -16.42034   -3.48880  -16.89003
      H1   -16.67450   -3.64272  -17.76980
       H   -10.71824   -7.83627  -11.45447
       O   -10.95492   -8.13622  -12.35640
      H1   -10.56933   -7.52167  -13.00069
       H   -18.12414   -4.77811  -12.16814
       O   -17.22954   -4.36372  -12.21776
      H1   -16.64380   -4.94135  -12.72709
       H   -11.80139    2.50081  -11.90287
       O   -11.84996    3.00432  -11.05762
      H1   -11.58063    3.90046  -11.28715
       H    -8.00864    3.16750  -14.89116
       O    -8.85966    2.90276  -14.47814
      H1    -8.79617    1.97825  -14.79495
       H    -7.92525   -7.10685  -10.37907
       O    -8.70706   -6.53482  -10.40987
      H1    -8.73929   -6.23836   -9.47439
       H   -16.30556   -7.43523  -17.25475
       O   -15.47997   -7.96735  -17.33046
      H1   -15.29730   -7.89881  -18.26423
       H   -11.84694    1.81230  -17.55336
       O   -12.32017    1.23139  -16.90834
      H1   -11.73529    0.48756  -16.77986
       H   -12.23597   -2.23459  -13.51549
       O   -12.38783   -2.21158  -12.55102
      H1   -11.84456   -1.46851  -12.34171
       H   -13.74797   -1.51583  -11.72165
       O   -14.43580   -1.08739  -11.09298
      H1   -15.14919   -1.05563  -11.68568
       H   -13.97931   -5.52907  -13.98857
       O   -14.78913   -5.31826  -13.53269
      H1   -14.44065   -5.35532  -12.63390
       H   -13.52661   -0.38363  -17.53726
       O   -14.21426   -1.06601  -17.54464
      H1   -15.04111   -0.56894  -17.48323
       H   -11.23898    2.25889  -14.44014
       O   -11.87210    2.03330  -13.67530
      H1   -12.60544    1.72193  -14.24712
       H    -7.09409   -2.92342  -13.49250
       O    -7.53220   -2.75811  -14.37117
      H1    -7.01340   -3.43897  -14.81880
       H   -14.54396    3.99678  -18.07771
       O   -15.25435    3.77254  -17.40714
      H1   -14.80698    3.89293  -16.50719
       H   -13.45697    4.25713  -15.04645
       O   -14.10990    3.56053  -14.90781
      H1   -14.51107    3.89645  -14.04935
       H    -5.83653   -2.87241  -11.14388
       O    -6.55747   -2.78082  -11.80122
      H1    -7.36698   -2.99460  -11.29021
       H    -4.80113   -2.63104  -18.71790
       O    -4.71453   -3.06218  -19.61478
      H1    -4.56943   -2.33973  -20.25071
       H   -11.61215   -2.00449  -15.73377
       O   -12.23889   -1.40252  -15.32469
      H1   -13.10489   -1.61459  -15.66547
       H    -4.68041   -3.90895  -16.33270
       O    -4.31000   -3.68600  -15.43104
      H1    -3.42553   -3.42188  -15.63645
       H   -17.79875   -2.46457  -13.51105
       O   -17.76749   -2.15059  -14.38465
      H1   -18.24577   -1.33456  -14.49244
       H   -18.99325    0.77309  -15.35499
       O   -18.33492    0.49298  -14.66567
      H1   -18.99802    0.32196  -13.96077
       H   -12.88331   -8.05230  -12.70282
       O   -13.64349   -8.28761  -13.27432
      H1   -14.46274   -8.12788  -12.74422

