180
frame 6 | Written by MDAnalysis XYZWriter (release 2.4.3)
       H   -11.98316  -18.50719   -7.13316
       O   -11.47571  -19.20290   -7.61774
      H1   -11.45604  -19.90151   -6.91410
       H   -13.51161  -18.83924   -5.83742
       O   -13.51979  -17.87913   -6.14015
      H1   -12.92327  -17.35088   -5.50491
       H    -4.26604  -12.41758  -15.47387
       O    -4.99076  -13.01213  -15.70794
      H1    -5.68531  -12.41705  -16.06010
       H    -5.67679  -13.43015  -14.07135
       O    -6.05641  -13.78461  -13.24563
      H1    -6.13431  -14.74689  -13.49942
       H    -4.12655  -15.80560   -6.77282
       O    -4.71448  -15.87535   -6.00088
      H1    -4.29003  -15.16809   -5.46257
       H    -1.51671  -13.38195   -8.28981
       O    -1.06704  -13.20311   -9.11862
      H1    -0.56011  -12.46193   -8.77382
       H    -2.29237  -12.41015  -15.30728
       O    -2.39896  -11.80655  -14.58231
      H1    -2.65165  -12.36202  -13.83775
       H   -14.17565  -13.99728   -8.16365
       O   -14.91441  -14.19330   -7.58595
      H1   -15.12642  -15.11373   -7.81395
       H   -12.10319  -14.75693  -13.51211
       O   -11.70113  -15.22739  -14.31803
      H1   -12.25182  -16.00550  -14.44376
       H   -12.45372  -10.10211  -10.16030
       O   -12.63927   -9.59999  -10.94276
      H1   -13.37326  -10.07167  -11.42983
       H    -8.61973  -12.36842  -13.80889
       O    -8.20794  -11.71391  -14.36039
      H1    -8.14492  -11.00130  -13.65648
       H    -2.48351  -16.38440  -14.94636
       O    -1.99338  -16.39794  -15.79841
      H1    -1.13249  -16.75871  -15.60529
       H   -12.26204  -12.67066   -8.84895
       O   -12.67803  -13.52996   -9.17301
      H1   -12.06277  -14.18717   -8.77882
       H    -4.36446  -18.14986   -8.65678
       O    -4.84847  -18.66072   -9.34033
      H1    -4.52377  -19.55264   -9.07903
       H   -10.04105  -18.66230   -8.65695
       O    -9.44178  -18.17589   -9.22636
      H1    -9.84390  -17.28516   -9.31395
       H    -6.82177  -18.42539  -15.10966
       O    -6.09559  -17.78368  -15.02697
      H1    -5.36524  -18.29927  -15.43638
       H    -9.23993  -11.80521   -7.11411
       O   -10.07902  -11.44141   -6.83030
      H1   -10.62059  -12.31532   -6.85831
       H   -13.88350  -17.43287  -14.42485
       O   -13.00938  -17.61962  -14.07681
      H1   -13.25156  -17.51972  -13.12482
       H    -8.66844  -16.66519  -17.13222
       O    -8.86151  -16.37006  -16.16643
      H1    -8.66119  -15.43899  -16.10899
       H    -9.05520   -8.52720  -13.17017
       O    -8.75672   -9.31718  -12.69937
      H1    -9.65660   -9.70605  -12.52069
       H    -5.52718  -15.46274   -8.84021
       O    -6.37257  -15.50574   -9.21887
      H1    -6.77499  -14.65810   -8.89610
       H    -7.21340  -10.91337   -4.67525
       O    -6.84913  -10.70255   -5.57635
      H1    -7.38055   -9.94882   -5.79410
       H   -10.09029  -16.24240   -5.56993
       O   -11.00581  -15.99884   -5.83795
      H1   -11.11920  -15.04385   -5.61874
       H    -4.22702  -16.39487  -12.97936
       O    -3.38156  -16.31706  -13.43099
      H1    -2.96097  -16.97288  -12.87237
       H    -2.91841  -14.49192  -12.88804
       O    -2.84000  -13.64402  -12.49727
      H1    -1.87729  -13.63989  -12.28207
       H    -7.30193  -17.06655   -4.05752
       O    -6.59681  -17.26405   -3.37380
      H1    -6.55391  -16.39266   -2.92253
       H   -10.58969  -11.76314  -11.60077
       O   -10.81841  -11.10820  -12.25218
      H1   -11.49490  -10.51451  -11.80076
       H    -8.79143  -16.04135   -3.90496
       O    -8.76542  -16.56974   -4.74114
      H1    -8.30892  -15.91016   -5.29887
       H   -12.70000  -10.76883   -7.70245
       O   -12.25280  -10.74216   -8.59467
      H1   -11.33893  -10.74381   -8.22809
       H   -13.97538  -12.33399  -12.35194
       O   -14.22672  -11.35566  -12.51920
      H1   -15.18833  -11.48303  -12.51515
       H    -8.34279  -13.21323  -15.61970
       O    -8.62206  -13.56469  -16.48024
      H1    -9.57756  -13.31613  -16.47155
       H    -6.57220  -11.69322   -9.81094
       O    -6.88401  -11.52496   -8.85788
      H1    -6.22046  -10.88203   -8.56802
       H    -7.96721  -13.00386   -8.14969
       O    -8.39827  -13.87628   -7.98080
      H1    -7.88629  -14.13540   -7.19681
       H    -4.47693  -12.65113  -11.62320
       O    -4.74991  -12.08936  -10.83690
      H1    -4.09382  -11.44507  -10.95411
       H   -11.65382  -12.71808   -4.89698
       O   -11.85967  -13.40955   -5.53062
      H1   -12.77506  -13.23974   -5.74829
       H   -10.76244  -10.60697  -14.27526
       O   -10.61431  -10.10135  -15.08854
      H1    -9.85285  -10.53812  -15.42039
       H    -6.69070  -17.25530  -11.81865
       O    -6.31059  -16.75900  -12.53751
      H1    -6.29560  -17.38547  -13.28372
       H    -4.02281   -9.86978   -7.66644
       O    -4.99254   -9.86427   -7.77634
      H1    -5.07948   -9.05071   -8.26372
       H    -9.13620  -15.63818  -11.42786
       O    -8.98269  -15.43214  -10.49782
      H1    -8.03866  -15.66926  -10.38071
       H    -1.59422  -18.74789   -9.51127
       O    -0.74029  -18.77870   -9.08654
      H1    -0.32957  -18.01954   -9.55312
       H   -13.45027  -14.14538  -11.04344
       O   -13.82856  -14.37580  -11.87766
      H1   -13.75674  -15.31580  -11.77352
       H    -7.83965  -18.50091   -8.26617
       O    -7.05661  -18.95323   -7.85161
      H1    -6.45667  -18.66307   -8.58173
       H    -4.35124  -11.76016   -6.75805
       O    -3.72070  -12.50096   -6.73938
      H1    -4.05466  -13.09444   -7.39167
       H   -10.64866  -18.93826  -15.25520
       O   -10.18826  -19.05384  -14.39011
      H1   -10.43791  -18.14633  -13.96728
       H    -5.20728  -14.70597  -16.65994
       O    -5.23346  -15.65010  -16.89889
      H1    -5.75044  -16.01371  -16.14067
       H    -8.93809   -9.64510  -10.62249
       O    -9.12843   -9.90098   -9.70144
      H1    -8.49359  -10.54902   -9.55907
       H    -8.44200   -8.42767   -9.09389
       O    -7.76539   -7.72217   -8.96842
      H1    -7.50361   -7.44019   -9.89800
       H    -8.29873  -13.60171  -11.18540
       O    -8.07702  -12.72477  -11.54336
      H1    -7.23054  -12.88657  -11.99119
       H   -14.03303  -17.46529  -11.00787
       O   -13.16426  -17.11369  -11.29401
      H1   -12.53678  -17.72014  -10.92161
       H   -11.95475  -13.09425  -16.35400
       O   -11.38565  -13.80874  -16.71900
      H1   -11.51735  -14.38928  -15.90165
       H    -1.82422  -15.90091   -6.89805
       O    -1.66803  -15.02963   -6.61941
      H1    -2.28808  -14.80266   -5.90402
       H    -8.60356  -18.28549  -12.37546
       O    -8.10122  -18.98297  -11.88013
      H1    -8.55255  -18.93903  -11.02407
       H    -6.59354  -19.47236   -6.20883
       O    -6.17384  -19.52996   -5.35032
      H1    -6.39408  -18.71672   -4.92155
       H    -3.21053  -14.89861   -8.79892
       O    -3.99956  -14.36265   -8.61641
      H1    -4.10210  -13.90032   -9.48395
       H    -2.98076  -17.88961   -6.73152
       O    -2.78722  -17.33384   -7.48725
      H1    -2.03943  -17.75591   -7.95867
       H   -11.08470  -15.70662   -7.50420
       O   -11.03233  -15.64651   -8.48982
      H1   -10.10587  -15.43451   -8.66338
       H    -8.76590  -16.51533  -13.86101
       O    -9.47659  -16.47253  -13.11227
      H1   -10.10728  -15.95920  -13.63515
       H    -6.29413  -15.30300   -6.11201
       O    -7.05920  -14.66721   -5.93823
      H1    -6.70190  -14.32539   -5.14866
       H    -8.24372  -19.34609   -3.15014
       O    -8.94852  -18.81463   -2.78487
      H1    -9.09252  -18.22191   -3.52233
       H    -3.20839  -19.38575  -12.02606
       O    -3.16745  -18.50022  -11.52607
      H1    -3.97953  -18.58152  -10.97399

