180
frame 4 | Written by MDAnalysis XYZWriter (release 2.4.3)
       H   -17.80774  -17.56418    7.58997
       O   -18.17341  -17.34355    6.70199
      H1   -18.53592  -18.18205    6.36742
       H   -11.12813  -14.13510    0.87577
       O   -11.53411  -13.32888    1.20528
      H1   -11.25306  -13.21794    2.17709
       H   -13.45785  -17.96163    5.97601
       O   -13.23478  -17.95446    6.93048
      H1   -13.03673  -17.03222    7.01069
       H    -9.82073  -15.01210    3.68381
       O    -9.25154  -14.23048    3.85611
      H1    -9.71933  -13.55903    3.32759
       H   -12.03940  -14.02147    7.43524
       O   -12.33018  -14.92522    7.18121
      H1   -13.08048  -14.86054    7.82634
       H   -12.05421  -12.06064   -1.76981
       O   -11.84070  -12.47691   -2.65906
      H1   -12.16420  -13.37465   -2.61846
       H    -9.64148  -14.26061   -2.29040
       O    -9.43934  -15.17202   -2.07875
      H1   -10.06689  -15.40826   -1.38840
       H   -14.47001  -18.56951    4.09312
       O   -14.13293  -19.40529    4.41661
      H1   -14.82938  -19.86225    4.91982
       H   -18.20041  -13.59787   -1.79836
       O   -17.80664  -13.93556   -0.96581
      H1   -18.57216  -14.08492   -0.40906
       H   -16.89297  -13.91093    6.12225
       O   -17.66025  -13.62763    6.73805
      H1   -17.64435  -12.65074    6.62769
       H   -13.23326  -10.77871    0.36767
       O   -14.00581  -10.75783    0.99008
      H1   -14.75249  -10.97491    0.41785
       H   -17.96639  -10.83444    7.76173
       O   -17.36222  -11.06369    7.00079
      H1   -17.88239  -10.66439    6.22635
       H   -16.04857   -8.67927    2.66572
       O   -15.57711   -8.48793    1.82101
      H1   -14.88943   -9.16503    1.73361
       H   -15.03155  -19.33692   12.09222
       O   -15.53733  -19.15173   12.91855
      H1   -15.24169  -18.24056   13.11991
       H   -15.54408  -14.90547    8.73531
       O   -14.77022  -15.40730    8.40051
      H1   -14.98288  -16.33618    8.47477
       H   -11.86143  -15.66154    3.15043
       O   -11.13951  -16.19736    3.52234
      H1   -11.35737  -16.24127    4.45733
       H   -19.49136  -13.55245   -4.29493
       O   -19.06737  -13.14924   -3.53225
      H1   -19.01858  -12.24145   -3.79612
       H   -10.09949  -15.51390    9.42572
       O   -10.33162  -16.24085    8.84153
      H1   -10.83121  -15.76737    8.18730
       H   -16.22733  -11.81814   10.10583
       O   -15.92079  -11.00194   10.58413
      H1   -16.44292  -11.13428   11.41334
       H   -19.73847  -16.10359   -7.06063
       O   -19.09998  -15.43840   -6.69924
      H1   -18.50462  -15.92575   -6.14274
       H   -15.11337  -18.66797    9.32199
       O   -15.54822  -18.14161    8.55835
      H1   -14.77853  -18.28177    7.93096
       H   -16.19951   -9.66415    7.14181
       O   -15.38158   -9.21364    6.88027
      H1   -14.69863   -9.75530    7.26125
       H   -14.89459  -13.07016    0.00423
       O   -15.27848  -12.72528   -0.85497
      H1   -16.24907  -12.85089   -0.70375
       H   -11.23154  -17.10995   10.35852
       O   -11.85706  -17.35343   11.06092
      H1   -11.65339  -16.67724   11.68414
       H   -14.45260  -16.95633   11.18020
       O   -14.74720  -16.43467   11.91115
      H1   -15.69884  -16.45327   11.77912
       H   -16.80770  -16.38420   -2.52227
       O   -17.36100  -16.85445   -3.20200
      H1   -16.92521  -17.72606   -3.04788
       H   -19.33076  -10.61765    1.43789
       O   -18.94675  -11.23294    0.81636
      H1   -19.57115  -11.31227    0.07851
       H   -17.66294  -13.94356    9.57574
       O   -16.91224  -13.35805    9.23504
      H1   -17.13013  -13.40245    8.23496
       H   -10.11450  -11.48196    3.21445
       O   -10.76702  -12.14743    3.53047
      H1   -10.42158  -12.20574    4.43457
       H   -13.71710  -14.82704   11.15680
       O   -13.32438  -14.36020   10.37205
      H1   -13.93996  -14.65740    9.67587
       H   -16.94228  -11.30276    1.39501
       O   -16.41529  -11.75562    2.06539
      H1   -17.11369  -11.99160    2.70477
       H   -10.72540  -11.38532   -0.06334
       O   -11.40406  -10.70831   -0.20142
      H1   -10.90509  -10.00878   -0.63700
       H    -9.63189  -17.21966    3.36158
       O    -8.72709  -17.40882    3.14458
      H1    -8.32681  -16.55801    2.99023
       H   -14.63242  -15.68027    2.77321
       O   -14.56914  -15.71500    3.77505
      H1   -14.71467  -14.77317    3.93056
       H   -14.67960  -14.33553   -3.57344
       O   -14.07769  -14.39713   -2.79283
      H1   -14.40647  -13.58133   -2.29994
       H    -8.76498  -16.52761    8.16365
       O    -7.84578  -16.53314    7.80714
      H1    -8.06383  -16.64909    6.86117
       H   -12.98134  -12.57809    5.88755
       O   -13.29746  -13.31903    5.34460
      H1   -12.86538  -14.09069    5.69115
       H   -14.97354  -15.37524   -1.63258
       O   -15.69569  -15.93848   -1.30768
      H1   -16.31004  -15.23834   -0.94897
       H    -9.25013  -12.94642    6.21073
       O   -10.19464  -13.04085    6.10880
      H1   -10.16699  -13.69615    5.40111
       H   -15.01196  -12.92683    4.82121
       O   -15.84086  -13.38331    4.69101
      H1   -16.50376  -12.70261    4.60278
       H   -14.62822  -17.55188   -0.85977
       O   -14.43589  -18.48265   -0.78672
      H1   -14.18420  -18.72673   -1.73619
       H   -17.02518  -18.40902    3.19176
       O   -17.50031  -18.97532    2.50737
      H1   -16.81352  -19.54004    2.21607
       H   -15.76511  -10.33523    4.03076
       O   -16.36512   -9.65854    4.40371
      H1   -15.96664   -9.47077    5.29509
       H   -13.03898  -18.12348    0.27061
       O   -12.62941  -17.70977    1.08286
      H1   -11.92181  -18.31629    1.17316
       H   -17.71967  -15.58021   13.43054
       O   -17.84971  -15.11543   12.58362
      H1   -18.39953  -15.80645   12.07620
       H   -11.37612  -16.54641    0.66905
       O   -10.63230  -15.86457    0.49806
      H1    -9.84297  -16.34736    0.90138
       H   -18.13381  -13.17443    3.38795
       O   -18.28326  -12.42857    3.96968
      H1   -19.24734  -12.45722    4.08420
       H   -12.85376  -11.48113    3.63561
       O   -13.37560  -10.65893    3.62307
      H1   -13.76014  -10.79862    2.71331
       H   -13.67826  -18.77533   -3.55300
       O   -13.93357  -19.56770   -3.08054
      H1   -14.81933  -19.80852   -3.47326
       H   -15.77695  -12.09226   -3.86028
       O   -15.24082  -11.29828   -3.73436
      H1   -14.92224  -11.37302   -2.83011
       H   -12.61539  -10.22932    8.07530
       O   -12.23240  -10.79922    7.48026
      H1   -11.89010  -11.55015    7.93770
       H    -8.82362  -17.31100    4.90725
       O    -9.45514  -17.17291    5.68517
      H1    -9.92411  -18.01400    5.86101
       H   -15.85375  -16.42419    4.47528
       O   -16.56648  -17.16471    4.42269
      H1   -16.91544  -17.12963    5.31614
       H   -13.64429  -13.65564    1.29260
       O   -14.54814  -13.94616    1.40680
      H1   -15.08833  -13.24165    1.83458
       H   -17.81136  -15.91970    3.37701
       O   -18.37964  -15.18194    3.21413
      H1   -19.22206  -15.50227    3.50088
       H   -19.19535  -16.83259   -0.64852
       O   -19.35005  -17.58887   -1.23769
      H1   -18.71768  -17.44838   -2.01696
       H   -18.02844  -17.44339   -4.72465
       O   -17.86331  -17.84870   -5.58187
      H1   -17.00239  -17.40880   -5.78139
       H   -13.30706  -16.14741   -3.38630
       O   -12.92634  -16.93908   -3.75998
      H1   -11.98821  -16.78498   -3.73165
       H   -17.17496  -13.61536   -3.84743
       O   -16.27483  -13.83051   -4.15819
      H1   -16.42875  -13.77875   -5.13209
       H    -6.12413  -18.78881    3.21111
       O    -6.38192  -19.36344    3.87595
      H1    -7.33002  -19.30356    3.79727

