180
frame 1 | Written by MDAnalysis XYZWriter (release 2.4.3)
       H     8.43510   10.53262    2.63771
       O     8.08790   10.76661    3.53023
      H1     8.91257   11.19749    3.81896
       H    15.18197   16.80868   -2.11448
       O    15.51569   17.67696   -2.11528
      H1    16.46716   17.46320   -1.97770
       H     9.71647   13.20376   -8.38334
       O     9.16156   13.10089   -7.64562
      H1     9.58991   13.65384   -6.99138
       H     8.77373   15.40059   -5.03125
       O     9.49907   15.65924   -4.44491
      H1     9.20751   16.26645   -3.76095
       H    12.57748   14.77045    2.23401
       O    12.00650   14.65467    2.97377
      H1    11.94409   15.52450    3.29295
       H    14.23880   10.20795    4.76199
       O    14.77199   11.03283    4.68096
      H1    14.16561   11.70983    4.94610
       H     6.08855    8.66349   -4.52880
       O     5.56493    7.86300   -4.80709
      H1     4.64049    8.15024   -4.55155
       H    13.91372   17.30683   -3.82143
       O    12.99608   16.94301   -3.77249
      H1    12.70408   17.20763   -2.89000
       H    17.42886   11.48516    2.18215
       O    16.73045   10.76852    2.32649
      H1    17.11543   10.16411    2.98786
       H     6.90863   14.97217   -1.40309
       O     7.13357   14.02676   -1.35656
      H1     6.62862   13.64293   -2.11321
       H    15.90914   11.04883   -0.72643
       O    16.70141   10.48815   -0.65953
      H1    16.95160   10.37515    0.30085
       H    15.56146   14.14628    1.67792
       O    16.41891   14.48066    1.92490
      H1    16.47466   14.13381    2.84321
       H    11.46411   18.07631    3.14852
       O    11.02513   17.33910    3.59240
      H1    11.63501   17.18071    4.34778
       H    12.40069    6.52607   -5.62793
       O    11.92226    7.35047   -5.38041
      H1    12.46275    7.69508   -4.68330
       H     6.94117   13.74165    1.37404
       O     7.11914   12.81142    1.37389
      H1     6.72859   12.47878    2.23350
       H    16.83386    8.47432   -1.25782
       O    17.03942    7.56342   -1.15877
      H1    17.51491    7.51909   -0.33890
       H    16.87703    8.12573   -4.21123
       O    16.32581    8.89607   -4.53822
      H1    15.43902    8.52396   -4.47289
       H    13.50224   14.39557   -0.86097
       O    12.56973   14.40265   -0.59861
      H1    12.39910   13.47799   -0.48177
       H    10.19989    8.10959   -4.14252
       O     9.69127    7.84610   -3.39838
      H1     9.61586    6.88302   -3.39897
       H     4.03479   11.88313   -1.40288
       O     3.61020   12.15942   -2.23568
      H1     3.08197   11.39682   -2.52826
       H    10.60506   12.60891   -1.44712
       O    11.02769   11.93931   -0.89318
      H1    10.61632   12.30823   -0.06845
       H    11.73921   14.70708   -7.97404
       O    12.05020   14.65819   -7.02395
      H1    11.79690   15.53530   -6.65570
       H     4.76226   11.40008    0.66639
       O     5.25062   11.76717   -0.11625
      H1     5.93720   12.30503    0.32029
       H    13.50795   11.86086    2.13754
       O    14.31491   12.22397    1.77689
      H1    14.98299   11.56518    2.09427
       H    13.38411    9.55173   -4.31509
       O    13.79974    8.96364   -3.64857
      H1    13.27586    9.24333   -2.82128
       H     9.71575   14.74175    0.01985
       O     9.54900   15.46769    0.60476
      H1    10.44168   15.58255    0.97560
       H    14.07404   11.85127   -0.15808
       O    14.40640   11.71883   -1.02506
      H1    13.91815   10.93787   -1.34406
       H     8.37355   13.10894    5.97459
       O     9.12801   13.43479    5.45033
      H1     9.67270   14.00466    6.10031
       H    11.73612   13.82359   -4.59709
       O    11.58148   12.87294   -4.37767
      H1    10.67721   12.61454   -4.52964
       H    12.22969    8.49111    1.78326
       O    13.13858    8.83022    1.87162
      H1    13.35010    9.04173    0.93367
       H     8.88729    4.36323    0.52401
       O     8.98345    4.75624   -0.38453
      H1     9.82974    5.20496   -0.22145
       H     6.83332    7.39792   -0.07377
       O     6.46609    6.50347   -0.08768
      H1     7.25019    5.95478   -0.22858
       H    16.05035   10.55975   -3.76634
       O    16.22890   11.52210   -3.47589
      H1    15.58274   11.63401   -2.75780
       H    10.28941   12.14805    4.76237
       O    10.52407   11.20322    4.87086
      H1    11.13861   10.99780    4.10781
       H     7.74012    8.73139    3.92780
       O     8.14016    7.89624    4.03853
      H1     7.55368    7.37446    3.48141
       H    14.76839    5.59880    2.02457
       O    14.57329    6.41918    1.46555
      H1    14.26151    7.07807    2.11541
       H     5.00819   12.64243   -3.07220
       O     5.90232   12.76085   -3.47596
      H1     5.83333   12.02391   -4.08669
       H     8.52763   14.15342   -1.56520
       O     9.54360   14.14967   -1.66386
      H1     9.75766   14.57173   -2.52431
       H     9.29893   11.44888   -5.56199
       O     9.06507   11.86958   -4.70360
      H1     8.45172   12.64829   -4.94923
       H    10.83932    6.65164    2.67719
       O    10.91951    7.50629    3.13509
      H1    10.04271    7.93980    3.16565
       H    14.99922    6.85348   -1.21833
       O    14.06614    6.75931   -1.07179
      H1    14.03917    6.63896   -0.08639
       H     5.55046   16.21524   -1.81230
       O     6.42514   16.54578   -1.76151
      H1     6.53035   16.93077   -2.66637
       H     9.82921    9.15073   -1.94490
       O    10.19311    9.44508   -1.05569
      H1    10.40914   10.36118   -1.18034
       H    11.22757   11.39204    1.91452
       O    11.90511   11.20143    2.56454
      H1    12.30146   10.39544    2.13586
       H     8.86574   12.56998    1.61929
       O     9.87180   12.68605    1.45617
      H1    10.09256   13.47951    1.88218
       H     7.83741   10.56369   -3.83410
       O     7.51179    9.70547   -3.55006
      H1     8.35445    9.18633   -3.57006
       H     6.32603    9.32088   -2.10603
       O     5.89830    9.12944   -1.23513
      H1     5.75305   10.01007   -0.89073
       H    10.83655   16.52422   -5.51438
       O    11.30747   17.12864   -6.18818
      H1    11.93888   17.64005   -5.62255
       H     8.81175    9.81359    0.03909
       O     8.18331   10.14903    0.71876
      H1     7.98255   11.06884    0.41921
       H    12.12564    9.02323   -1.08869
       O    13.06210    9.19375   -0.93217
      H1    13.44051    8.30179   -0.90129
       H     7.19687   13.95728   -6.54294
       O     7.55999   14.00965   -5.63232
      H1     6.71816   13.66756   -5.07984
       H     7.40543   15.31942    2.88894
       O     7.14298   15.47581    1.99479
      H1     8.05490   15.53565    1.68225
       H    15.78958   13.18806   -4.47432
       O    15.51177   14.07389   -4.35275
      H1    14.87715   14.19922   -5.12496
       H    16.19482   14.89750   -1.08577
       O    15.27361   15.15483   -1.28333
      H1    15.22066   14.77495   -2.23366
       H    10.29421   10.19691   -7.03034
       O     9.37906   10.43170   -6.97137
      H1     9.28607   11.27824   -7.52997
       H    12.59063   13.41829    6.23291
       O    13.06481   13.13998    5.43887
      H1    12.55152   13.53829    4.67318
       H    13.07412   11.58178   -5.87343
       O    13.28437   10.68758   -6.07590
      H1    13.45311   10.59797   -7.05507
       H    12.15112   16.00711   -0.80238
       O    11.73436   16.86781   -0.98194
      H1    11.79172   17.26715   -0.11835
       H     8.64025   16.60063   -1.84337
       O     9.32181   17.13976   -2.27155
      H1    10.12244   17.02872   -1.73233
       H     5.05318   11.37236    3.24976
       O     5.65212   12.03331    3.69566
      H1     6.45658   11.46922    3.82777

