180
frame 0 | Written by MDAnalysis XYZWriter (release 2.4.3)
       H    -1.80891    4.52320    4.80939
       O    -2.16440    5.14259    4.17041
      H1    -2.80600    5.59005    4.64982
       H     0.60250   -0.85471    4.91952
       O     0.14878   -0.57603    4.06845
      H1    -0.76172   -0.70857    4.35474
       H    -0.80785    0.54656   -0.39531
       O    -1.12291   -0.27033    0.06554
      H1    -1.69470    0.15385    0.70995
       H    -5.14704    7.69625   -2.80916
       O    -5.99318    7.53979   -2.35826
      H1    -5.93141    7.75775   -1.44108
       H    -2.15385    4.31821   -3.54480
       O    -1.34337    3.77073   -3.50879
      H1    -0.89514    4.06904   -2.70066
       H    -4.24812    5.08102   -4.05638
       O    -3.31887    5.37576   -4.18760
      H1    -3.19345    5.06310   -5.09848
       H    -3.38500    0.85241   -4.97913
       O    -3.03229    0.15208   -4.44798
      H1    -2.15259    0.49422   -4.17200
       H    -3.34337   -0.35397   -2.55806
       O    -3.37984   -0.82468   -1.68231
      H1    -2.73027   -0.34218   -1.12251
       H    -6.20642    4.49808   -5.25523
       O    -5.76899    4.17547   -4.47049
      H1    -5.56191    3.31514   -4.88255
       H    -0.39771    6.62782   -1.36548
       O     0.34469    6.90276   -1.92470
      H1     1.02315    6.26523   -1.59497
       H    -5.07082    7.51833    1.99718
       O    -4.75947    8.32121    1.67520
      H1    -4.86628    8.96357    2.46728
       H    -3.44463   -3.07184    1.50030
       O    -3.89890   -3.26750    0.65264
      H1    -4.76363   -2.82738    0.76853
       H    -3.78076    2.81291    6.10081
       O    -4.61103    2.31691    6.15378
      H1    -4.46680    1.51609    5.61884
       H    -7.56514    4.75213   -1.23501
       O    -6.54730    4.75361   -1.12812
      H1    -6.34517    5.32064   -1.95426
       H    -7.95454    4.28953    5.08784
       O    -7.04120    4.52719    5.35060
      H1    -6.77733    5.18252    4.72152
       H    -5.71114    6.89938    3.63046
       O    -5.95960    5.98329    3.36859
      H1    -5.72161    6.01426    2.43079
       H    -6.43035    8.41813    0.83939
       O    -7.28179    8.29223    0.41451
      H1    -7.69698    7.64960    0.95182
       H    -7.16583    2.58417    3.23683
       O    -7.65855    1.81899    2.79073
      H1    -8.18725    1.41377    3.46022
       H    -3.77897    8.44926   -0.00010
       O    -3.32267    8.57814   -0.83596
      H1    -2.68949    9.32899   -0.67989
       H    -9.17231   -1.96181    0.88100
       O    -9.34449   -1.42220    0.08667
      H1    -8.46009   -1.36112   -0.24185
       H    -1.45813    6.58494    0.47949
       O    -1.74580    6.27240   -0.39142
      H1    -2.45643    6.99675   -0.53913
       H    -6.45101   -2.21160    0.14805
       O    -6.45420   -2.08072    1.09904
      H1    -6.36264   -1.09877    1.17920
       H    -9.69989    6.42490    2.16177
       O    -8.87258    6.38469    1.67809
      H1    -8.90870    5.48891    1.29146
       H    -3.95725   -1.52407   -4.76857
       O    -3.98377   -2.47348   -5.12996
      H1    -4.64014   -2.36624   -5.83913
       H    -3.22009   -0.46284    4.35101
       O    -2.58081   -1.07901    4.66308
      H1    -2.79199   -1.92815    4.35886
       H    -7.00338    0.66321   -2.79986
       O    -6.97095   -0.13473   -3.39109
      H1    -6.66344   -0.72257   -2.71740
       H    -2.50712   -0.73897   -5.98397
       O    -1.96621   -1.19351   -6.65390
      H1    -1.35343   -0.45791   -6.75982
       H     2.00163    2.74964    3.65973
       O     1.86881    3.58396    3.16406
      H1     1.55271    3.26675    2.32092
       H     3.06839    7.10131    1.38836
       O     2.17018    6.97895    1.71519
      H1     2.24512    6.19818    2.26623
       H     0.13935    7.04986    1.95552
       O    -0.76759    7.23133    2.23219
      H1    -0.80142    6.79050    3.05945
       H    -0.22160   -1.42560    1.15674
       O     0.03123   -2.11869    1.83638
      H1     0.01177   -1.50929    2.56644
       H    -3.65570    8.37739   -4.77645
       O    -3.67551    8.12192   -3.81959
      H1    -3.22897    7.24945   -3.94181
       H    -9.60791    0.34991    0.55382
       O    -9.94314    1.19966    0.83552
      H1    -9.37725    1.34264    1.61648
       H     3.32410    5.11696   -0.34700
       O     2.34770    5.19644   -0.48234
      H1     2.13552    5.72671    0.24800
       H    -6.69860    2.78671   -1.83518
       O    -7.07612    1.93700   -1.54370
      H1    -6.67982    1.84275   -0.66654
       H    -3.58111    1.78030   -6.99320
       O    -4.23600    1.81108   -6.29176
      H1    -4.84576    1.13155   -6.61048
       H     1.33418    3.86796    0.32603
       O     0.61319    3.55059    0.87393
      H1     0.25721    2.97328    0.22969
       H    -4.79071    3.34562   -7.47594
       O    -5.51738    3.94134   -7.74042
      H1    -5.15873    4.17893   -8.58497
       H    -3.06059    3.21420   -1.15515
       O    -3.35773    3.89596   -0.47345
      H1    -2.65946    4.54998   -0.65175
       H    -1.90197    2.57786    4.02347
       O    -2.67754    2.01175    3.73556
      H1    -3.44910    2.58605    3.73272
       H    -5.00174   -1.33497   -1.47033
       O    -5.92119   -1.71028   -1.47972
      H1    -5.61086   -2.66299   -1.67324
       H    -2.09146    9.06176   -3.63367
       O    -1.61627    9.87539   -3.70776
      H1    -1.32313   10.06849   -2.79792
       H    -8.50879    3.11803   -1.42023
       O    -9.01915    3.91431   -1.02147
      H1    -9.52233    4.16008   -1.82262
       H     0.57024    4.42504   -7.07321
       O     0.16091    4.01284   -6.33908
      H1     0.37756    4.48845   -5.51473
       H    -3.74380   -3.61805   -2.28967
       O    -4.66001   -3.61295   -2.58428
      H1    -4.54605   -3.09190   -3.42164
       H     0.55946    7.15312   -4.54396
       O     1.04196    6.65389   -5.14944
      H1     0.75109    6.95830   -6.00592
       H    -7.74468    7.63395   -2.39637
       O    -8.68287    7.65375   -2.38601
      H1    -8.87301    7.85365   -1.45892
       H     1.14013   -1.83037   -4.03234
       O     1.16547   -1.04996   -4.64532
      H1     1.01667   -1.52018   -5.50793
       H     0.74454   -3.35454   -1.99624
       O     0.33306   -2.69868   -2.55896
      H1     0.12345   -3.30877   -3.29454
       H    -1.61024    4.87703   -6.68485
       O    -2.54429    4.94034   -6.84355
      H1    -2.72358    5.87027   -7.07307
       H     0.08261    0.21029   -4.01286
       O    -0.46934    0.85237   -3.53346
      H1    -0.19384    1.64171   -3.96963
       H     1.18598    8.42381   -1.77635
       O     1.69104    9.23167   -1.40681
      H1     2.46433    8.84003   -0.92104
       H    -4.85329    0.76178    1.17263
       O    -5.74436    0.75939    0.81769
      H1    -6.34706    1.21363    1.45771
       H    -2.43716    3.27303   -8.22033
       O    -2.75305    2.43869   -8.57711
      H1    -1.95598    1.80692   -8.47300
       H    -2.90903    1.69562    2.19453
       O    -3.05710    1.30178    1.28281
      H1    -3.22667    2.11136    0.82596
       H     0.19695    1.55081   -2.12216
       O     0.32578    1.68496   -1.14340
      H1     1.14882    1.31230   -0.91002
       H    -6.47012   -0.73969   -6.46012
       O    -6.47256    0.14031   -5.98844
      H1    -6.64859   -0.20382   -5.05365
       H    -5.52641    5.24597    0.15101
       O    -5.03492    5.84084    0.68731
      H1    -4.17008    5.49401    0.72316
       H    -5.42687    3.16421    4.56630
       O    -5.13591    3.22519    3.64989
      H1    -5.30986    4.15978    3.61211
       H    -1.84411   -2.90142   -1.97595
       O    -2.12264   -3.67600   -1.42897
      H1    -2.61276   -3.18207   -0.71345

