180
frame 8 | Written by MDAnalysis XYZWriter (release 2.4.3)
       H    15.37377   11.30362   -6.94378
       O    15.81937   11.77110   -7.68959
      H1    15.09772   12.31543   -8.02497
       H    15.44994   18.75369   -7.16639
       O    16.12274   18.35641   -7.76009
      H1    16.41187   17.54420   -7.22959
       H    18.79307   11.70856    1.35269
       O    18.83822   10.98834    0.63547
      H1    19.18318   10.25505    1.08960
       H    18.67622   11.87333  -15.83844
       O    18.91341   12.32289  -15.02747
      H1    19.30171   13.15846  -15.35824
       H    15.67694    8.17495   -8.93522
       O    16.19671    7.94607   -8.16207
      H1    16.71501    7.12761   -8.33759
       H    16.02277   10.25473   -2.55385
       O    16.81656    9.70606   -2.45449
      H1    17.42940   10.02691   -3.10274
       H    13.24295    7.04232   -6.02674
       O    12.61405    7.57893   -5.51322
      H1    13.18415    8.23528   -5.15635
       H    17.20767    8.03043   -1.44356
       O    17.36135    7.08895   -1.31683
      H1    17.43525    7.02230   -0.32660
       H    18.81554    9.33860   -9.33263
       O    19.34185    9.39249  -10.16576
      H1    18.90587   10.14162  -10.62227
       H    15.48738    8.92217   -5.80110
       O    14.81740    9.63745   -5.76789
      H1    14.67259    9.86039   -4.80838
       H    13.97603   15.10341   -2.63740
       O    13.43418   14.27663   -2.41626
      H1    12.62860   14.27554   -2.95894
       H    11.79336    5.16636   -8.16641
       O    11.92078    5.97588   -8.75126
      H1    12.79710    6.26767   -8.42896
       H    17.15670    6.79240  -14.80675
       O    18.08911    6.57673  -15.08748
      H1    18.57196    7.35988  -14.64860
       H    14.74171    3.35702   -7.57725
       O    15.37319    3.87678   -7.08691
      H1    16.20130    3.59114   -7.45806
       H    11.28475   11.48188   -1.77582
       O    12.17125   11.62057   -2.16398
      H1    12.62886   12.04128   -1.40689
       H    15.69621   11.47996    0.66562
       O    16.18336   12.17230    0.25481
      H1    17.09907   11.75727    0.34523
       H    15.48108    9.93383  -13.06884
       O    14.85973   10.50555  -13.45616
      H1    14.93609   11.34153  -12.96665
       H    13.34604   10.27890   -2.64562
       O    13.83323    9.58210   -3.08651
      H1    14.36836    9.08937   -2.52066
       H    15.18843    5.59800  -13.03370
       O    14.88325    6.23259  -12.34786
      H1    14.00874    6.45340  -12.77399
       H    14.78832    5.44380   -7.35843
       O    14.24035    6.27752   -7.36797
      H1    14.99886    6.86229   -7.49540
       H    15.53163   12.38173   -1.67220
       O    15.41855   12.14760   -2.58399
      H1    14.65927   12.67097   -2.76898
       H    19.30619   15.75858   -5.03854
       O    18.67441   16.21345   -4.43922
      H1    18.84230   17.11258   -4.74829
       H    12.21123    8.29824   -7.07177
       O    11.81214    8.51360   -7.91823
      H1    11.37975    7.72594   -8.27490
       H    17.64854   13.07792   -4.67276
       O    17.69120   12.87089   -3.67646
      H1    16.71676   12.67861   -3.49735
       H    15.21163    3.19513   -5.29990
       O    15.31288    2.70031   -4.46684
      H1    14.56800    2.86397   -3.87663
       H    16.45246    3.11492   -2.83181
       O    17.40487    2.94831   -2.59525
      H1    17.77761    2.89997   -3.52095
       H    19.44178   13.28906   -0.97382
       O    19.17897   13.98013   -0.37658
      H1    19.54543   13.73688    0.53959
       H    16.97183   12.70775   -6.74374
       O    17.50684   13.36508   -6.28421
      H1    17.13769   14.23870   -6.53947
       H    15.28184   12.86845  -11.60708
       O    14.37554   13.01735  -12.09343
      H1    14.39347   13.85639  -12.55569
       H    13.79231    8.83009  -10.45152
       O    14.17903    9.12042   -9.56543
      H1    13.48061    8.93657   -8.96463
       H    18.00987   15.74119   -2.62557
       O    17.27259   15.80927   -1.94091
      H1    17.37831   14.96094   -1.50092
       H    15.68496    6.07766   -0.98328
       O    14.80929    5.94823   -0.59533
      H1    15.04878    5.54486    0.29791
       H    18.54258   14.69863   -9.61769
       O    17.60260   14.90691   -9.66453
      H1    17.59261   15.76058  -10.07208
       H    18.57034   11.77021   -6.20959
       O    19.30708   11.19064   -6.04156
      H1    19.17823   10.56770   -6.72761
       H    10.47494    7.99471   -3.42990
       O    11.03079    8.24417   -2.66323
      H1    11.58807    8.93063   -2.97972
       H    18.01182    4.66969  -11.60895
       O    18.82104    4.78000  -11.10921
      H1    18.48254    5.28508  -10.31604
       H    19.27070    8.00736  -13.12817
       O    18.65762    8.58271  -13.68218
      H1    17.89754    8.62593  -13.05468
       H    10.88360   11.64643  -10.77298
       O    11.63135   12.16873  -10.56612
      H1    11.30228   13.09382  -10.71585
       H    17.41562   16.09814   -5.78775
       O    16.71762   15.91741   -6.48650
      H1    15.94424   15.90041   -5.94512
       H    19.47503   11.16391   -1.48594
       O    19.65344   11.78926   -2.17303
      H1    18.78317   12.04335   -2.49400
       H    16.23991    8.87656  -11.11412
       O    16.44554    8.70746  -12.06005
      H1    16.02718    7.82655  -12.17281
       H    18.91015    2.75484   -7.97964
       O    18.16875    3.28582   -7.62396
      H1    18.27876    3.01288   -6.70088
       H    19.37888    3.58377   -4.72134
       O    18.67042    2.93464   -4.84277
      H1    19.05280    2.07255   -4.95849
       H    13.29176    8.59639    0.35589
       O    14.02972    8.80726   -0.30245
      H1    14.34332    7.95070   -0.54560
       H    13.51316    9.35003  -12.69449
       O    12.78621    9.09005  -12.13433
      H1    12.40823    9.89606  -11.84976
       H    14.05201   15.13171   -5.16597
       O    14.14209   16.00509   -5.51611
      H1    13.71623   15.68579   -6.31508
       H    19.36666   10.32011   -3.41425
       O    19.00751    9.55488   -3.90337
      H1    19.12250    9.88569   -4.82986
       H    15.64630   16.38129   -2.43164
       O    14.78150   16.63934   -2.79219
      H1    14.86811   16.43232   -3.73474
       H    13.45518   14.15926   -8.29207
       O    13.33348   15.09018   -8.37336
      H1    13.90409   15.35131   -9.10370
       H    12.50177   12.23110   -8.84293
       O    12.96527   11.95014   -8.03438
      H1    13.35174   11.16493   -8.42727
       H    17.66860    8.62880   -7.66578
       O    18.57041    9.08290   -7.69289
      H1    19.04497    8.31206   -7.30192
       H    11.07153    9.71288   -6.34196
       O    10.27196   10.09700   -5.99930
      H1    10.11405   10.75276   -6.73048
       H    14.81830    3.85458  -10.17420
       O    15.64331    3.39093  -10.26275
      H1    15.91440    3.63394  -11.15263
       H    12.56426   12.86037   -4.44155
       O    13.35618   12.63656   -4.89083
      H1    12.93061   12.11834   -5.60199
       H    16.35569   11.99932   -9.96032
       O    16.60534   11.85729  -10.87709
      H1    17.26637   12.59906  -10.98374
       H    19.51315   12.33050  -12.11795
       O    19.20936   12.89154  -11.34065
      H1    19.84996   12.70375  -10.69001
       H    18.81999    7.02112   -2.15276
       O    19.67428    7.21935   -2.60597
      H1    19.29342    7.92466   -3.18454
       H    18.66881    6.17721   -8.40195
       O    17.92831    5.84607   -8.87777
      H1    17.95391    4.93460   -8.69309
       H    18.98426   19.13000   -6.04785
       O    19.58082   18.40711   -6.05649
      H1    19.43284   18.09354   -6.92583
       H    17.37707    8.18993   -4.25619
       O    16.96440    7.64159   -4.96101
      H1    16.82813    6.84677   -4.48929

