180
frame 5 | Written by MDAnalysis XYZWriter (release 2.4.3)
       H     5.18111   -5.01551   -2.89579
       O     5.00175   -5.82789   -3.36856
      H1     4.27558   -5.56393   -3.92529
       H     8.83768    0.85233   -2.44154
       O     8.86378    0.53443   -3.34629
      H1     9.78477    0.21591   -3.43508
       H     5.15881    0.52010   -3.99443
       O     5.81363    0.55253   -4.69669
      H1     6.31281   -0.24483   -4.62769
       H     6.60603    2.96661   -4.72720
       O     7.26509    2.97619   -4.01174
      H1     7.59047    2.01806   -4.04576
       H    14.52731    1.89111   -0.49501
       O    14.68024    1.09815    0.01999
      H1    15.58936    0.82413   -0.24961
       H    12.99767   -4.99962   -4.09463
       O    13.33141   -5.53535   -4.82867
      H1    12.51107   -6.04281   -5.02811
       H    13.51753    2.48078   -7.84225
       O    12.94602    1.78507   -7.49119
      H1    12.80786    1.30175   -8.31434
       H     7.51593   -5.82362   -4.21293
       O     8.16026   -6.20468   -4.82365
      H1     7.72329   -7.01592   -5.17920
       H    12.74060   -5.83836   -1.89016
       O    12.64822   -4.83471   -1.96577
      H1    13.58541   -4.65503   -2.06396
       H     9.85168   -1.94435  -11.53096
       O    10.09498   -2.12882  -10.62645
      H1     9.30033   -2.43363  -10.25211
       H    15.36050    0.95885   -2.95613
       O    15.78295    0.10390   -2.74729
      H1    15.23492   -0.45553   -3.39433
       H    13.64451    4.07967   -1.17151
       O    13.30591    3.13401   -1.33462
      H1    12.39647    3.30625   -1.66150
       H     9.12412    4.11049   -4.83994
       O    10.10214    3.96178   -4.95305
      H1    10.17316    3.13574   -5.48178
       H    12.08927   -4.29322   -0.40291
       O    11.70797   -4.37108    0.53121
      H1    11.14845   -3.53475    0.55691
       H    14.85742   -2.87695    1.73577
       O    15.36862   -2.05950    1.50603
      H1    14.81292   -1.70067    0.79848
       H     3.64369   -2.67771   -0.87888
       O     3.95034   -3.66697   -0.95365
      H1     4.93220   -3.58411   -0.97389
       H    14.39914    2.56957   -5.07804
       O    14.56968    2.68341   -4.11084
      H1    13.81783    2.96296   -3.59202
       H    11.71561    6.73267   -4.88397
       O    10.98279    6.56079   -5.53844
      H1    10.79543    5.64598   -5.37436
       H     8.37771   -5.30891   -6.47104
       O     8.52514   -4.56707   -7.03173
      H1     9.39232   -4.22143   -6.75780
       H     5.25138   -3.93514   -6.15261
       O     6.04024   -3.41276   -5.97185
      H1     6.77072   -3.82731   -6.48720
       H    13.24503   -1.61895   -1.20454
       O    14.12786   -1.74728   -0.85003
      H1    14.54041   -0.89802   -1.15895
       H     7.06130   -6.36958   -1.07776
       O     7.09863   -5.70553   -0.42298
      H1     6.38168   -5.90679    0.21270
       H    11.91762    0.92278   -1.38953
       O    11.64847    0.73984   -0.52469
      H1    11.58517    1.63175   -0.11318
       H    10.29987   -0.14223  -10.46288
       O    10.19793    0.73567  -10.03155
      H1     9.28926    0.93026  -10.35874
       H     6.14035    2.15547   -1.38231
       O     6.18771    3.09902   -1.48771
      H1     6.53210    3.10178   -2.40478
       H    10.45422    7.04294   -0.07682
       O    11.07217    6.40042    0.21587
      H1    10.60373    5.60473    0.05374
       H     9.95868    3.57933   -2.08602
       O    10.84001    3.39719   -2.48469
      H1    10.65307    3.63541   -3.41331
       H     9.61323    0.76074   -0.49113
       O     8.66322    1.11307   -0.58285
      H1     8.82556    2.09092   -0.47288
       H     6.98268    6.94448   -0.77079
       O     6.41530    6.22175   -1.03871
      H1     7.11197    5.54948   -1.17372
       H     2.85063    1.22089   -3.20425
       O     3.32110    1.21525   -2.41741
      H1     3.07658    1.98955   -1.88585
       H    13.74250    3.62303    1.61323
       O    13.22454    4.40460    1.46921
      H1    13.21298    4.74956    2.39720
       H    16.67425    2.80541   -3.09515
       O    17.30786    2.53872   -2.38155
      H1    18.00510    2.20907   -2.98628
       H    11.12305   -1.70740    0.01642
       O    10.64784   -1.55195    0.84961
      H1    11.33398   -1.12980    1.41922
       H    11.48843    1.02945   -6.62494
       O    10.93117    0.51633   -5.98968
      H1    10.39223   -0.03926   -6.62210
       H     9.47635   -3.26604   -2.52520
       O     8.95010   -3.74486   -3.16370
      H1     9.41654   -3.67277   -4.01544
       H     8.67031    3.69015    0.85656
       O     8.26320    3.71265    0.00467
      H1     7.30021    3.48404    0.24070
       H    14.57208   -2.50935   -7.14930
       O    15.37711   -2.12360   -6.98124
      H1    16.06510   -2.80923   -6.76298
       H     9.93709   -6.67280   -4.45002
       O    10.73253   -7.19004   -4.21898
      H1    10.81784   -7.10870   -3.29730
       H     5.33363    2.38430   -5.91557
       O     5.44355    3.34728   -5.99404
      H1     4.72360    3.64795   -6.54874
       H    11.17648   -1.19663   -2.36771
       O    11.34674   -1.98184   -1.83980
      H1    11.77072   -2.67010   -2.32357
       H     6.56004   -1.47723    0.57808
       O     6.50801   -2.42473    0.68804
      H1     7.11561   -2.70432    0.00158
       H     6.01359   -3.14853   -3.98207
       O     6.24912   -3.20073   -3.07714
      H1     7.18472   -3.57311   -3.08260
       H    12.71338   -2.13383   -4.55011
       O    12.02936   -2.84024   -4.47443
      H1    11.79353   -3.00900   -5.38319
       H    10.33899    2.70692    1.32602
       O    10.85010    3.04458    0.53264
      H1    11.51891    3.52762    1.07449
       H    13.79315   -4.75238   -6.67514
       O    13.62249   -4.39080   -7.58430
      H1    14.27397   -4.99061   -8.04047
       H    11.63214   -3.54485   -7.64908
       O    10.88403   -3.09277   -7.22115
      H1    10.60830   -2.40644   -7.91749
       H    16.06903   -4.30683   -2.49278
       O    15.30024   -4.17839   -1.96853
      H1    15.29282   -3.27504   -1.64199
       H     7.69028   -4.01525   -9.94578
       O     7.99490   -3.20847   -9.55042
      H1     8.00263   -3.42725   -8.57093
       H    14.80898   -1.30947   -5.58146
       O    14.32749   -0.68932   -4.94687
      H1    13.80075   -0.25510   -5.58705
       H     9.91036    3.91078    3.33723
       O     9.28579    3.24683    2.84986
      H1     8.47208    3.25179    3.30846
       H     3.38030    4.49316   -1.62658
       O     3.44612    3.74005   -1.01727
      H1     4.40453    3.46677   -1.11047
       H     3.47742   -0.70948   -0.01000
       O     2.95119   -0.98577   -0.89157
      H1     3.39702   -0.34662   -1.48570
       H    10.38688   -6.00602   -0.10927
       O    10.53769   -6.95721   -0.06731
      H1     9.74934   -7.44020   -0.28631
       H     7.64938   -0.70933    4.14586
       O     8.46069   -0.16733    3.99629
      H1     8.58133   -0.11555    3.06723
       H    11.45966    1.33580   -3.17485
       O    11.77922    0.42292   -3.30616
      H1    11.58875    0.39468   -4.29233
       H     6.39434    1.11591    1.68637
       O     6.54923    0.55723    0.91662
      H1     7.45735    0.72176    0.59528
       H     5.84657    3.74013   -8.17218
       O     6.35543    3.65511   -8.95303
      H1     5.65468    3.59849   -9.64195
       H     9.06726   -0.26593   -8.35114
       O     9.18052   -0.78682   -7.56477
      H1     8.24779   -0.78785   -7.26248
       H    13.30445    0.12215    1.53357
       O    12.92715   -0.23598    2.31396
      H1    13.58123   -0.94394    2.34548
       H    11.01136   -4.36440    3.55818
       O    10.23663   -4.12246    3.00336
      H1    10.49834   -3.23564    2.74143

