180
frame 1 | Written by MDAnalysis XYZWriter (release 2.4.3)
       H    -2.34833   -4.60142   -0.36260
       O    -2.13285   -5.43169    0.09870
      H1    -3.00022   -5.63879    0.55192
       H     7.09585   -3.41320   -3.59645
       O     6.76422   -4.31320   -3.63755
      H1     6.07575   -4.24804   -4.36085
       H     6.10592    0.96299   -3.53010
       O     5.23297    1.36044   -3.45497
      H1     4.81377    0.47200   -3.44671
       H    -0.63380   -0.26769   -0.68254
       O    -1.33471   -0.56532   -0.11754
      H1    -1.84192    0.29255    0.20006
       H     7.37252   -8.37701   -1.86517
       O     8.03301   -8.27405   -1.16319
      H1     7.68743   -8.93645   -0.53264
       H     6.71139   -4.19229    1.96738
       O     6.10618   -4.12713    1.21106
      H1     6.58576   -3.38063    0.75367
       H     6.52964   -0.47473    1.81546
       O     7.42361   -0.04234    1.79557
      H1     7.77088   -0.65101    2.49985
       H    -0.58545   -2.44982   -6.23669
       O     0.01919   -3.12940   -5.98301
      H1    -0.04105   -3.63547   -6.79909
       H     1.31626   -5.23587   -1.29846
       O     1.05458   -5.46200   -2.25182
      H1     0.20444   -5.92197   -2.04843
       H     9.32363   -4.42913   -5.69678
       O     9.26631   -5.10378   -5.02721
      H1     8.54183   -4.75503   -4.47442
       H     9.01957   -9.42893    2.84305
       O     8.32174   -9.98694    2.47531
      H1     7.64658   -9.29435    2.30644
       H     4.54660   -2.93950   -9.23838
       O     4.07158   -3.51773   -8.60657
      H1     3.75947   -2.85823   -7.97112
       H     1.91987   -5.16386   -4.84360
       O     2.58982   -4.47087   -4.71528
      H1     2.88010   -4.56828   -3.77616
       H     4.99615   -3.48359    2.27062
       O     4.39923   -3.01002    2.89921
      H1     3.83176   -3.78084    3.10798
       H     4.66493   -3.82002   -1.95547
       O     3.83923   -4.27748   -1.75581
      H1     4.11114   -5.21791   -1.65032
       H     8.46310   -4.96306    2.80661
       O     7.75700   -4.91666    3.51077
      H1     8.10967   -5.61477    4.06395
       H     7.11223   -5.67401   -7.36790
       O     7.23265   -4.67751   -7.38003
      H1     8.23245   -4.66456   -7.53531
       H     7.57874   -1.76910   -5.28990
       O     7.39553   -1.88186   -6.23296
      H1     6.87008   -2.76062   -6.14776
       H     3.45362   -8.00666   -6.71158
       O     3.20204   -7.94961   -7.63293
      H1     3.82772   -8.64005   -7.93930
       H    11.08730   -6.86676   -1.23941
       O    10.32501   -6.38146   -0.92743
      H1     9.64293   -7.05262   -1.05249
       H     4.42971   -8.32945   -0.30085
       O     3.95288   -8.99239    0.22031
      H1     3.09857   -8.52849    0.47438
       H     4.38790   -4.58436   -5.56253
       O     5.09283   -3.99206   -5.67148
      H1     5.62166   -4.31598   -6.40776
       H     5.27513   -7.64336   -6.00814
       O     4.47778   -7.56900   -5.33351
      H1     4.58372   -8.42166   -4.83330
       H     1.95646   -2.81429   -6.52574
       O     2.58650   -2.13404   -6.72372
      H1     3.32719   -2.49054   -6.22561
       H     7.28477   -6.55376   -0.68473
       O     6.40033   -6.16610   -0.61808
      H1     6.39526   -5.62317    0.18232
       H    -1.92530   -6.36447   -2.89774
       O    -1.24250   -6.56678   -2.26218
      H1    -1.68362   -6.36798   -1.47762
       H     3.13142  -10.49624    1.77999
       O     3.27883  -11.39787    2.12869
      H1     3.40677  -11.88024    1.30318
       H     1.46552   -8.04449   -3.57504
       O     1.70679   -7.45130   -4.29783
      H1     1.94645   -8.06674   -5.00640
       H     0.24928   -6.37935   -4.87441
       O    -0.32390   -5.89632   -5.49741
      H1    -0.32973   -5.04210   -5.10416
       H     5.56045   -6.81539   -3.87980
       O     5.89329   -7.29560   -3.09338
      H1     6.14186   -6.55273   -2.54844
       H     3.81099   -1.24941   -2.46142
       O     4.16840   -1.15019   -3.35312
      H1     3.28067   -1.10627   -3.79709
       H    10.02856   -4.47241   -1.98786
       O     9.93300   -3.51023   -2.15303
      H1    10.69650   -3.27649   -2.69938
       H    -0.30479   -1.61194    0.96202
       O     0.35033   -2.29537    1.29528
      H1     0.39535   -2.12165    2.25827
       H     3.53787  -11.26657   -4.85191
       O     3.47923  -12.11742   -5.20004
      H1     2.77121  -12.52345   -4.64352
       H    -1.37611   -3.87602    2.32040
       O    -1.83178   -3.74015    3.18717
      H1    -1.78211   -4.63328    3.60113
       H     7.90863   -1.53869   -0.20395
       O     7.84351   -2.49034   -0.09903
      H1     8.76855   -2.74474   -0.32660
       H     8.37331   -0.91088   -3.40157
       O     8.24728   -1.83273   -3.51821
      H1     8.84430   -2.23560   -2.80473
       H    -0.31123   -5.18510   -8.69625
       O     0.42468   -4.85237   -8.13672
      H1     0.47401   -5.46928   -7.39777
       H     2.64855   -3.76786   -0.17442
       O     2.13729   -4.31904    0.45736
      H1     1.39583   -3.67163    0.66307
       H     3.33090   -6.71053    3.87600
       O     3.33759   -7.56261    3.45270
      H1     3.37375   -8.35732    4.09887
       H     1.32100   -1.60336   -3.60541
       O     1.65203   -0.97659   -4.30127
      H1     1.82838   -1.50378   -5.13533
       H     0.29113   -3.95115   -3.06363
       O    -0.24107   -3.17349   -3.27283
      H1    -0.06092   -3.07110   -4.20280
       H     2.80036   -6.91189   -2.30641
       O     3.50066   -7.00212   -1.70327
      H1     4.25337   -6.95551   -2.31356
       H     0.26776   -8.90308    3.52940
       O     0.86167   -8.36221    4.10716
      H1     1.61010   -8.10404    3.57163
       H     9.17112   -9.19952   -1.97313
       O     9.77093   -9.78119   -2.46564
      H1     9.41610  -10.66103   -2.35765
       H     3.29498   -2.06816    1.77792
       O     2.93138   -1.26645    1.35802
      H1     1.99288   -1.57209    1.34037
       H     4.43856   -6.84472   -8.12375
       O     5.02590   -6.15968   -8.50045
      H1     4.43607   -5.38737   -8.51335
       H     5.16649   -9.32218   -2.92750
       O     4.78369   -9.91312   -3.59484
      H1     4.23799  -10.59331   -3.18338
       H     3.36366   -0.34665    0.08927
       O     3.60664    0.47283   -0.47661
      H1     4.44166    0.63866   -0.05874
       H     7.53377  -10.36656    0.71725
       O     6.75528  -10.21737    0.16966
      H1     6.12015   -9.69616    0.68363
       H     2.02870   -4.45974    4.54599
       O     2.71680   -4.83245    3.96514
      H1     2.19703   -5.08697    3.19277
       H    10.51454   -4.83086    1.61630
       O     9.82824   -5.47387    1.62992
      H1     9.89629   -5.91370    0.76847
       H     3.95613  -12.75704   -2.70835
       O     3.83049  -12.07081   -2.06271
      H1     2.99371  -12.43447   -1.72592
       H     0.46946    0.82529   -2.49148
       O     0.71242    0.92060   -1.59580
      H1     1.65492    1.02189   -1.58709
       H     1.18543   -7.66075   -0.15606
       O     1.71570   -7.36363    0.64362
      H1     2.10300   -6.58361    0.22476
       H     5.03668   -8.24335    2.50002
       O     5.99208   -8.18465    2.58720
      H1     6.10466   -7.36734    3.11395
       H     7.38208   -8.20213   -6.91090
       O     7.19894   -7.47013   -6.27631
      H1     7.69318   -7.78911   -5.53416
       H     4.05267   -0.64391    2.73638
       O     4.61330   -0.10510    3.32105
      H1     4.60973   -0.72062    4.13465
       H     0.05954   -9.22138   -0.86265
       O     0.37689   -8.62946   -1.53364
      H1    -0.43824   -8.28633   -1.90674
       H    -1.44437   -2.91543   -1.98132
       O    -2.23040   -2.94505   -1.42187
      H1    -2.07783   -2.15350   -0.90981

