180
frame 1 | Written by MDAnalysis XYZWriter (release 2.4.3)
       H     6.47399   13.08947   15.16967
       O     6.31113   12.25839   14.73551
      H1     7.19143   11.93916   14.46692
       H     3.56889   12.00653   19.13380
       O     2.98655   12.59262   19.65734
      H1     3.34178   13.47476   19.58033
       H     4.92069    8.64336   14.33197
       O     4.55671    8.06049   15.02548
      H1     4.59000    7.24611   14.47683
       H    10.35936   14.58320   13.58306
       O     9.64507   14.25895   12.96015
      H1     8.82221   14.74185   13.24492
       H    10.54058   11.03439   11.98060
       O     9.79660   10.61008   12.44532
      H1    10.12010    9.68974   12.49047
       H    12.69851   14.56424   17.86307
       O    13.58533   14.54567   18.12264
      H1    13.65374   15.46975   18.50718
       H     7.73728   11.18758   17.08346
       O     7.82684   11.51787   17.98918
      H1     7.34363   10.93647   18.57370
       H     2.99843   17.84866   15.07620
       O     3.97535   17.79058   15.12132
      H1     4.16828   18.67522   14.73155
       H     0.50157   11.41306   13.49705
       O     0.37926   11.85176   12.67030
      H1     0.88325   11.35205   12.06876
       H     2.37241    9.50656   13.10148
       O     3.14245   10.08061   12.94236
      H1     3.12897   10.67181   13.67134
       H     3.44718   10.17947   17.77205
       O     4.06033   10.95746   17.62227
      H1     3.79907   11.34116   16.74399
       H     2.81532   12.68160   12.69169
       O     3.42479   13.15610   13.26831
      H1     4.23193   12.61192   13.24794
       H     3.89828    8.18689    9.88174
       O     3.96647    9.05224   10.34093
      H1     3.87485    8.72814   11.25115
       H    10.58730    7.50403   14.49755
       O    10.04998    7.81429   13.69526
      H1    10.70119    7.55645   13.02475
       H     9.72945   17.48969   17.54253
       O    10.08898   16.76095   18.11505
      H1    11.07164   16.81272   17.95078
       H     3.23375    6.22030   11.69491
       O     3.48222    6.82025   12.37330
      H1     2.69336    7.23144   12.70625
       H     9.57354   11.47240   14.04691
       O     9.18991   12.14155   14.65795
      H1     9.42807   12.97653   14.20834
       H    13.28848   10.16258    9.67787
       O    12.77981    9.79358   10.47300
      H1    12.12770    9.23628   10.02045
       H    11.01200   15.49713   11.34651
       O    10.80735   16.47523   11.29757
      H1    10.28364   16.72723   12.10753
       H     8.61941   17.74746   13.55962
       O     9.56263   17.47791   13.70888
      H1     9.99091   18.31968   13.95293
       H    11.41698   14.48045   15.46268
       O    11.59844   15.02377   14.67003
      H1    11.35068   15.92358   14.98622
       H     7.33498    8.34832   12.65539
       O     7.40829    7.39767   12.57063
      H1     8.35092    7.35805   12.85382
       H     1.26455   11.23919   15.39692
       O     0.56434   10.57007   15.28748
      H1     0.90261    9.75707   15.67879
       H    14.32992    8.26805   13.58529
       O    13.65273    7.86834   13.04534
      H1    13.33920    8.55663   12.47744
       H     7.21837   15.56219   14.51055
       O     7.91912   15.38018   15.12400
      H1     8.38655   16.21105   14.99074
       H     7.18282    9.03409    9.40888
       O     6.30429    9.26253    9.16029
      H1     5.73282    9.01715    9.99124
       H    10.10000   11.45778   16.13584
       O    10.69572   11.26542   16.80911
      H1    10.39997   10.47047   17.17547
       H     2.41187    8.13751   17.33131
       O     2.38323    8.78601   16.62869
      H1     3.15874    8.50624   16.07961
       H     9.05592   13.54847    9.69981
       O     8.98670   14.53022    9.66092
      H1     8.12064   14.60737    9.22202
       H    13.63037   11.62041   15.80728
       O    13.15961   10.77189   15.71672
      H1    12.35414   11.07316   16.21275
       H     6.27018   15.74280    8.28695
       O     6.64508   14.90723    8.53725
      H1     6.00162   14.29225    8.22192
       H     6.88888   18.60992   14.19670
       O     6.98085   17.89418   13.57644
      H1     7.03850   18.49370   12.77715
       H     4.44903   15.88769   19.87581
       O     4.04943   15.02559   19.67037
      H1     4.31800   14.90578   18.74319
       H     9.49735   12.03267    9.67760
       O     8.77351   11.89369    9.08854
      H1     7.98120   12.00770    9.61668
       H     9.60071   18.51336    9.60127
       O     8.95430   18.29925   10.25074
      H1     9.37328   17.65661   10.80899
       H    13.30671   12.73845   18.75987
       O    12.98842   11.87336   18.89726
      H1    13.79887   11.37502   18.98013
       H     5.68057   17.47637   10.05485
       O     6.12832   17.67089    9.22624
      H1     7.10202   17.77719    9.53220
       H    10.45914   14.65764   17.41143
       O    11.11520   13.96962   17.14065
      H1    10.69568   13.09119   17.21589
       H     8.59941    8.35055   14.60002
       O     7.99448    8.72307   15.29913
      H1     7.15605    8.47620   14.94781
       H    10.05019    4.14755   15.15355
       O    10.38911    4.98791   15.44119
      H1     9.54848    5.41735   15.57061
       H     4.75371   14.40532   16.40703
       O     5.01609   13.87432   17.22572
      H1     5.94651   14.03635   17.33605
       H     7.66622   11.26584   11.17763
       O     6.85509   11.73310   10.98363
      H1     6.39346   11.11785   10.44671
       H     4.93063   13.62797    9.81789
       O     4.49708   13.97902   10.54595
      H1     3.53898   13.83944   10.46437
       H     2.91224   12.62557   16.17787
       O     2.99149   11.98099   15.48912
      H1     3.25491   12.56956   14.79969
       H    10.77394    6.22772   11.06126
       O    11.13889    7.14298   10.94373
      H1    10.36758    7.54255   10.48555
       H     1.25051   12.46945   18.11573
       O     0.99078   12.61744   17.18228
      H1     0.97265   13.56831   17.08657
       H    12.83240   13.62843   13.50689
       O    13.08318   12.77735   13.10625
      H1    13.21679   12.25164   13.87333
       H     8.38082    7.55128    9.30986
       O     8.57933    8.02967   10.13417
      H1     8.05435    7.55920   10.84506
       H     6.51614    4.75856   14.35518
       O     5.87072    5.44362   14.20834
      H1     6.29590    6.00882   13.51435
       H     6.80537   14.69162   11.79761
       O     7.26597   15.57821   11.81937
      H1     7.93566   15.35780   11.17396
       H     4.16389   16.39334   11.17134
       O     4.72124   17.13436   11.45429
      H1     5.32340   16.67421   12.04997
       H     5.26517    9.60462   12.89317
       O     6.01935    9.75393   13.42350
      H1     5.94055   10.74494   13.59820
       H    13.37838   15.46669   13.79166
       O    14.30787   15.19259   13.60846
      H1    14.41726   14.40504   14.21231
       H     4.47598   14.84876   14.04562
       O     4.94845   15.23188   14.83001
      H1     4.63109   16.16268   14.66692
       H     9.20688   10.40945    6.46137
       O     8.73562    9.98853    7.21901
      H1     8.80993   10.73444    7.86935
       H     2.55799   10.21186   10.21849
       O     1.71152   10.71125   10.13269
      H1     1.89017   11.03158    9.24449
       H     7.10910    7.05812   16.93832
       O     7.83863    6.63033   17.43721
      H1     7.39186    5.75894   17.60360
       H    11.60614   12.80360   10.30449
       O    11.10232   12.01970   10.44758
      H1    11.75087   11.34146   10.45701
       H     7.86308   14.51511   16.94440
       O     7.58650   14.55817   17.84654
      H1     7.81830   13.70801   18.20790
       H    10.41398    8.15708   18.32876
       O     9.95943    8.64337   17.64073
      H1     9.09477    8.21030   17.46232

