180
frame 5 | Written by MDAnalysis XYZWriter (release 2.4.3)
       H     1.77223    3.53338   -9.02787
       O     1.56890    4.52291   -8.97897
      H1     1.35673    4.76614   -9.84966
       H    -4.16845    9.56264   -3.96504
       O    -4.58439    8.72088   -3.80879
      H1    -4.86309    8.62109   -4.74345
       H    -0.92003   -0.22170   -0.25621
       O    -1.46742   -0.82353    0.31937
      H1    -2.22508   -0.94827   -0.33789
       H    -6.72072    2.52014   -5.36855
       O    -6.79252    3.47409   -5.31847
      H1    -6.50739    3.71661   -6.20060
       H     5.50543    7.63531   -4.96668
       O     4.87217    7.12048   -5.52664
      H1     4.19168    7.76318   -5.65484
       H    -5.26525    8.07471   -1.71967
       O    -5.13975    7.62431   -0.91083
      H1    -5.63318    7.99823   -0.15246
       H    -1.38997    3.36231   -4.53218
       O    -0.40142    3.39850   -4.44274
      H1    -0.30682    4.29584   -4.10126
       H    -0.10811   11.07081   -0.37121
       O     0.85363   11.05860   -0.45124
      H1     1.04234   11.18460   -1.40869
       H    -0.34661    8.70739   -7.98803
       O    -0.60517    8.35157   -7.11597
      H1    -0.51124    9.18733   -6.57984
       H    -4.00644    3.64493   -4.15486
       O    -3.20003    4.06366   -4.45666
      H1    -3.36772    4.16334   -5.41459
       H    -2.79431    0.51962   -4.38414
       O    -2.94301    0.09485   -3.51941
      H1    -2.15583    0.34630   -3.02220
       H    -5.41824    3.93833   -2.23142
       O    -5.33115    3.30784   -2.99346
      H1    -5.94137    3.64452   -3.68728
       H    -1.17691    6.13412   -3.31987
       O    -0.22343    5.92186   -3.25502
      H1    -0.12253    5.81119   -2.30369
       H     1.27814    8.35741   -9.40669
       O     0.38754    8.56272   -9.73166
      H1     0.07341    7.69068   -9.95292
       H     0.47039   10.19508    1.19322
       O     0.69114    9.68292    2.00017
      H1     0.01171    8.99092    1.92433
       H    -3.43863    8.86437    1.82174
       O    -3.83747    9.75647    1.95910
      H1    -3.45490   10.11979    2.81075
       H     3.73156   11.56604   -1.69110
       O     3.45788   11.95969   -2.52818
      H1     2.96421   11.24304   -2.95389
       H    -7.44626    7.53346   -7.52107
       O    -7.10423    7.21256   -8.36852
      H1    -6.37044    6.62963   -8.13272
       H    -6.76235    4.86804   -0.40552
       O    -5.92365    5.02832   -0.84526
      H1    -5.98644    5.92501   -0.87543
       H    -0.90441    7.67101   -0.84855
       O    -1.66354    7.78318   -0.21056
      H1    -2.02159    6.87290   -0.11000
       H    -0.69220    5.25842   -0.05087
       O    -1.65718    5.08419   -0.04220
      H1    -1.63539    4.86509    0.93886
       H     0.56495   13.75888   -2.15285
       O    -0.15200   13.84680   -2.83944
      H1    -0.61887   13.00685   -2.75427
       H    -2.41100   11.76138   -4.32902
       O    -1.50533   11.74819   -3.95273
      H1    -1.54007   10.94397   -3.48759
       H     4.07943    6.39162   -3.64481
       O     3.86384    6.09544   -2.74425
      H1     4.74667    6.04101   -2.25973
       H     2.85063    1.22089   -3.20425
       O     3.32110    1.21525   -2.41741
      H1     3.07658    1.98955   -1.88585
       H    -1.38107    7.64100    1.58933
       O    -1.10721    7.62361    2.54173
      H1    -1.05268    6.67291    2.70924
       H     3.06474    7.42374    0.39789
       O     2.61994    7.21821    1.25255
      H1     3.13330    6.46482    1.59371
       H    -0.65895    4.42846    2.79241
       O    -1.46010    4.96758    2.58178
      H1    -1.99771    4.77070    3.41367
       H     5.33363    2.38430   -5.91557
       O     5.44355    3.34728   -5.99404
      H1     4.72360    3.64795   -6.54874
       H    -3.44837    7.27741   -3.83085
       O    -2.72439    6.63689   -4.02546
      H1    -3.16466    5.76923   -4.01299
       H     1.60288    4.89289   -0.13886
       O     1.11951    5.70061   -0.41951
      H1     1.35706    6.43121    0.13687
       H     2.97590    7.21801   -9.15477
       O     3.02201    8.11687   -9.44559
      H1     3.07072    8.02382  -10.43485
       H    -6.31605    2.15973   -1.74253
       O    -7.13409    1.68415   -1.44606
      H1    -6.97671    1.56335   -0.50321
       H    -3.37276    0.80911   -6.90273
       O    -3.22193    1.30249   -6.08650
      H1    -4.15780    1.27192   -5.77851
       H     2.55701    2.94417    0.22799
       O     2.00392    2.93429    1.01069
      H1     1.23454    2.43413    0.64647
       H    -1.22667    1.20791   -8.02682
       O    -0.96735    0.34837   -8.39254
      H1    -0.40003    0.55709   -9.21018
       H    -4.78128    4.54458   -8.86558
       O    -5.58356    5.09971   -9.03351
      H1    -5.43618    5.40660   -9.94683
       H    -4.73185    4.14585    0.15531
       O    -4.11373    3.64646    0.71580
      H1    -3.28799    3.79400    0.18626
       H    -2.44988    9.32970   -1.30292
       O    -2.66019   10.22762   -1.63079
      H1    -2.45520   10.81160   -0.87439
       H    -3.86649   10.51441   -8.19513
       O    -3.91626    9.70164   -8.74977
      H1    -4.80412    9.44459   -8.64150
       H    -5.51359   10.97783   -1.70138
       O    -6.08176   10.82076   -2.45555
      H1    -5.63183   10.09572   -2.83230
       H    -0.19172    3.69327   -8.18095
       O    -1.01140    3.37525   -7.77352
      H1    -0.72812    3.34783   -6.83874
       H     0.62872    6.39974   -4.86475
       O     0.98953    6.86655   -5.64840
      H1     0.15692    7.36470   -6.01033
       H    -5.09017   11.58768   -4.01647
       O    -4.30057   11.46276   -4.52697
      H1    -4.49960   12.04968   -5.24589
       H     2.18700   -0.71503   -4.40086
       O     2.13131    0.13057   -4.87714
      H1     2.30183   -0.20145   -5.76641
       H    -2.16408    7.44197   -7.24394
       O    -2.98792    7.25368   -7.75153
      H1    -3.38223    8.13413   -7.80593
       H     4.23911    8.69686   -1.14927
       O     3.36874    8.34636   -1.25483
      H1     3.57492    7.62834   -1.87662
       H    -2.48707   11.57287    1.07494
       O    -1.69370   11.79373    0.55011
      H1    -1.21844   12.37983    1.13865
       H    -1.77013    6.66732  -10.87899
       O    -1.90748    5.95175  -10.21242
      H1    -2.23082    6.47339   -9.47063
       H    -2.49379    4.17719   -7.53327
       O    -3.40967    4.44982   -7.28098
      H1    -3.23504    5.43831   -7.39049
       H     0.43222    0.36325   -3.67608
       O    -0.04646    0.93725   -3.11436
      H1    -0.00868    1.75875   -3.62390
       H     3.38030    4.49316   -1.62658
       O     3.44612    3.74005   -1.01727
      H1     4.40453    3.46677   -1.11047
       H     1.02450    7.11716   -2.05614
       O     0.81955    8.01775   -1.72153
      H1     1.75591    8.18167   -1.38231
       H    -3.10786    0.99054    1.11085
       O    -3.73387    0.99246    0.39316
      H1    -4.21934    1.82317    0.44471
       H     0.66341    0.92614   -1.59433
       O     0.84735    0.59213   -0.68235
      H1     1.57507   -0.01341   -0.83526
       H     1.13743   10.20667   -4.17353
       O     1.69432   10.04994   -3.40894
      H1     1.27016    9.28686   -2.98732
       H     2.60345   11.79493   -5.73364
       O     3.53114   11.41655   -5.89219
      H1     3.37635   10.41942   -5.83498
       H     2.65207    9.07435   -7.14832
       O     2.70394    8.81053   -6.23768
      H1     2.02250    8.10523   -6.20642
       H    -0.18372   11.32914   -6.85236
       O     0.05140   10.94904   -5.98772
      H1    -0.63469   11.32940   -5.39823
       H     4.30924    6.01210   -6.69341
       O     3.91996    5.33614   -7.25937
      H1     2.98020    5.58600   -7.12309

