180
frame 9 | Written by MDAnalysis XYZWriter (release 2.4.3)
       H    13.77662   10.04974   17.87898
       O    14.60243   10.52673   18.09892
      H1    15.31497    9.90643   17.75761
       H    15.72693    4.17905   17.49892
       O    15.56246    4.70408   18.30029
      H1    16.25397    5.34157   18.20914
       H    10.35912   13.38084   11.63776
       O    10.52947   13.65645   10.68534
      H1     9.67185   14.03910   10.49451
       H    12.23987   13.72855   19.43055
       O    12.84579   14.08895   18.72648
      H1    12.87337   15.09152   18.97211
       H    13.76550    6.54630   11.14132
       O    14.16342    6.20916   10.31204
      H1    13.41868    6.03959    9.72243
       H    20.17088    4.11072   19.19573
       O    19.46064    4.71093   19.50857
      H1    18.71969    4.24959   19.09653
       H    15.68752    6.63917   13.83775
       O    16.44926    6.78283   14.38849
      H1    16.84858    5.91575   14.22196
       H     9.81722   18.69788   15.88706
       O     9.43240   17.81045   15.94998
      H1    10.32944   17.32248   15.92352
       H     9.43758   10.58573   19.35796
       O    10.21882   10.08698   19.25511
      H1    10.56682   10.40526   18.39861
       H    11.80599   18.46266   13.95859
       O    12.11588   18.13946   13.07949
      H1    12.81139   17.50117   13.24557
       H    14.10384    7.26121   19.84455
       O    13.55931    6.87420   19.07011
      H1    14.23449    6.40125   18.54724
       H    15.16861   10.72876   13.25694
       O    16.05624   10.62971   13.64653
      H1    16.26514    9.71819   13.24237
       H    14.92327    3.76156   14.47882
       O    14.79866    3.70601   15.42811
      H1    14.32325    4.54608   15.53442
       H    12.63010    8.12434   17.99204
       O    12.44538    8.81126   17.33705
      H1    11.51173    8.54799   17.07969
       H    19.18860   16.77290   11.44111
       O    18.24591   16.65983   11.58007
      H1    18.05083   16.00430   10.91760
       H    16.97448    7.76462   13.09655
       O    17.04147    8.34948   12.29165
      H1    17.97553    8.69771   12.21599
       H    15.41742   13.86806   11.20989
       O    14.48416   14.04522   10.86510
      H1    14.51059   13.60792   10.00179
       H    10.12627    9.57423   12.34285
       O    10.64319    9.61441   13.15178
      H1    11.45897    9.61277   12.67883
       H    17.41866   15.76567    8.64458
       O    18.29137   15.34183    8.93263
      H1    18.95715   15.92295    8.43936
       H    14.59942    7.04382   15.81867
       O    13.64835    6.91077   15.64907
      H1    13.25239    7.67753   16.08704
       H    13.40490   11.53069   13.54449
       O    13.42640   10.77800   12.91201
      H1    13.39421   11.36648   12.10841
       H    12.87710   16.37104   11.20590
       O    12.14111   16.37130   10.63640
      H1    11.85492   15.44797   10.69346
       H    10.56979   16.64428   11.40477
       O     9.62405   16.80828   11.77647
      H1     9.77864   17.20938   12.64572
       H    11.50060   14.81629   15.12929
       O    11.41031   14.60531   14.14900
      H1    10.57626   14.97298   14.00535
       H    18.78393   13.96351   18.04450
       O    18.65449   13.73808   19.00913
      H1    18.45094   12.79836   19.00345
       H    18.56909    4.70708   15.44472
       O    19.08187    4.63835   16.28182
      H1    18.68878    3.82528   16.68915
       H    18.07238   16.45171   13.39841
       O    17.38808   16.29660   14.12054
      H1    17.81049   15.55342   14.54749
       H    17.57191   16.64310   18.12167
       O    18.39324   17.10985   17.82124
      H1    18.24265   17.95760   18.32404
       H    13.52269    7.33539   13.77627
       O    13.97319    7.66263   12.97827
      H1    13.77174    8.61439   13.03910
       H    13.16697   17.33662   18.52779
       O    13.45812   16.69248   19.18670
      H1    14.32500   16.50149   18.82049
       H    18.37608   13.06998   15.91020
       O    18.95125   13.77107   16.09566
      H1    19.13801   14.05673   15.16040
       H    17.28593    8.46186   17.40242
       O    16.92223    9.34302   17.41011
      H1    17.25606    9.60144   16.58887
       H    17.37852   19.82533   11.31857
       O    17.17046   19.14534   10.65785
      H1    17.37119   18.30498   11.05369
       H    14.54659   15.60140   11.52659
       O    14.30907   16.32989   12.17480
      H1    15.08011   16.83832   12.31509
       H    11.55870   11.90114   16.35542
       O    10.98215   11.65747   17.04647
      H1    10.15587   11.66644   16.54567
       H    13.27945   18.32518    8.62052
       O    14.15646   18.67487    8.63436
      H1    14.67652   17.87699    8.37594
       H    14.52002   13.43336   19.38401
       O    15.38190   13.03094   19.55894
      H1    15.22542   12.05594   19.31950
       H     9.39374   14.41279   16.55107
       O     9.90780   14.36599   17.39868
      H1    10.49150   13.63383   17.16276
       H    17.23687   14.73638   12.41603
       O    16.91300   13.88563   12.15318
      H1    17.48641   13.58724   11.39528
       H    16.55360   11.48340   15.03801
       O    17.01045   11.92532   15.73684
      H1    16.26141   12.47337   16.03819
       H    12.32711   17.66640   16.56428
       O    11.96842   16.86889   16.09495
      H1    12.79733   16.54741   15.69673
       H    12.79605   19.21782   18.29622
       O    13.08670   18.88480   17.46583
      H1    13.94583   19.21829   17.27316
       H    16.27028   18.66782   15.41160
       O    15.30259   18.68020   15.53382
      H1    15.00507   19.27436   14.83703
       H    12.34509   13.23449   14.57701
       O    12.91911   12.59067   15.16386
      H1    13.63597   13.14273   15.46325
       H    13.75658   11.14391    7.78694
       O    13.55646   10.30492    8.30684
      H1    13.92649    9.67418    7.65358
       H    18.29805   11.42917   13.86389
       O    18.95894   11.97083   13.45230
      H1    18.41370   12.72878   13.18535
       H    19.15885   13.63233    5.25029
       O    19.48714   13.84073    6.16546
      H1    19.35045   14.79266    6.20240
       H    16.53080   14.90281   18.88842
       O    16.12442   15.60553   18.31179
      H1    15.89763   15.07663   17.49713
       H    15.14421   12.55840    7.88316
       O    14.35882   13.08564    8.11603
      H1    14.12817   13.66186    7.38037
       H    14.25277   13.98163   17.13215
       O    14.96669   14.06452   16.37508
      H1    14.70112   14.85255   15.86439
       H    14.70072   15.85273   13.88819
       O    14.45381   16.06384   14.84647
      H1    14.90308   16.89273   15.04072
       H    17.89070    7.41152    7.91798
       O    18.48944    7.82021    7.28170
      H1    19.25294    7.21937    7.30389
       H    18.51513   13.55225    9.46880
       O    18.76169   12.95551   10.18694
      H1    18.50640   12.05683    9.86753
       H    18.57694    3.89763   13.53572
       O    17.93381    4.61898   13.76595
      H1    17.81009    5.04186   12.89956
       H    17.16087   17.93951    7.49744
       O    16.46324   17.35365    7.74419
      H1    16.11906   17.15790    6.87386
       H    17.52462    6.89298   10.06701
       O    16.87002    6.43242    9.53384
      H1    16.01808    6.69763    9.99534
       H    18.32573    6.58294   18.33210
       O    17.42872    6.61427   18.66631
      H1    17.71846    6.84967   19.56842
       H    18.15918   17.61759   14.84410
       O    18.27642   18.36714   15.47994
      H1    18.26978   17.83789   16.36793
       H    19.57355    9.91888   19.92692
       O    18.76982   10.42075   19.60808
      H1    18.38098    9.90040   18.85662
       H    11.21149   12.10894    9.60335
       O    11.00899   11.28619    9.13111
      H1    11.95348   11.13189    8.85956

