180
frame 3 | Written by MDAnalysis XYZWriter (release 2.4.3)
       H   -12.80590  -16.78599   -7.27136
       O   -13.25986  -15.98319   -7.29695
      H1   -12.83013  -15.53403   -6.59258
       H    -7.14125  -15.55737   -1.33727
       O    -6.20936  -15.82880   -1.41142
      H1    -5.83309  -14.90099   -1.41269
       H   -14.99666  -13.50903   -8.40552
       O   -15.76228  -13.45023   -7.82835
      H1   -16.00078  -14.39796   -7.78172
       H   -12.71212  -14.92778  -13.43636
       O   -12.15419  -15.47971  -13.97218
      H1   -12.54192  -16.36370  -13.74974
       H   -12.44529  -12.65548   -8.95218
       O   -13.05741  -13.34923   -8.95721
      H1   -12.53727  -14.21494   -8.91171
       H   -11.60875  -13.00712   -2.83688
       O   -12.30769  -13.31495   -3.48249
      H1   -12.64889  -14.11712   -3.01287
       H    -4.18759  -18.57151   -9.88187
       O    -4.78489  -19.22982  -10.29358
      H1    -4.80145  -19.81535   -9.52885
       H    -8.38230  -13.72665   -1.46674
       O    -8.60254  -14.60220   -1.83644
      H1    -9.00478  -14.99008   -1.04522
       H    -4.91855  -17.65280   -0.84767
       O    -4.90396  -18.59128   -0.99537
      H1    -5.38750  -18.68032   -1.87241
       H   -10.34683  -18.24542   -9.84248
       O    -9.68454  -17.50350   -9.92823
      H1   -10.14801  -16.71860   -9.56024
       H    -9.04142  -10.22605   -7.02331
       O   -10.00236  -10.21195   -6.93238
      H1   -10.15165  -11.12448   -6.66228
       H   -14.20006  -17.59070  -13.53890
       O   -13.32190  -17.78089  -13.16797
      H1   -13.50900  -17.45355  -12.19632
       H    -6.41191  -14.78074   -7.82353
       O    -7.31749  -14.55857   -7.75702
      H1    -7.17935  -13.68249   -7.35551
       H    -6.43608  -13.37231   -3.84480
       O    -6.53296  -12.56193   -4.39802
      H1    -6.66851  -11.90587   -3.68833
       H    -8.86936  -15.03732   -6.67591
       O    -9.75796  -15.06007   -6.29129
      H1    -9.95323  -14.09062   -6.38366
       H   -18.86890  -14.44382   -4.26780
       O   -18.38608  -13.93694   -3.57058
      H1   -18.79748  -13.09772   -3.61416
       H    -6.93587  -19.23462   -3.31382
       O    -5.97594  -19.18408   -3.48905
      H1    -5.85722  -18.23606   -3.70925
       H    -9.63372  -15.26611   -3.25650
       O   -10.09952  -15.95776   -3.79002
      H1   -10.02274  -15.57980   -4.66637
       H   -12.45459  -10.46925   -8.58043
       O   -11.82477  -10.59956   -9.33577
      H1   -11.02107  -10.47517   -8.85544
       H   -14.09964  -12.39891  -11.90842
       O   -14.06464  -11.44155  -12.01350
      H1   -14.58837  -11.28592  -12.84840
       H   -19.16714  -15.78159   -6.61903
       O   -18.76974  -14.83006   -6.58628
      H1   -17.84481  -15.13219   -6.36239
       H    -6.89627  -11.35301   -7.19499
       O    -7.70563  -11.76863   -6.82363
      H1    -7.38364  -11.91016   -5.89599
       H   -11.37682  -13.00350   -5.22200
       O   -11.26443  -12.72017   -6.13442
      H1   -12.12430  -12.42188   -6.41880
       H   -18.47915  -13.85552   -8.43177
       O   -18.29757  -13.57988   -9.37140
      H1   -17.59921  -12.96760   -9.28728
       H    -7.19251  -15.53686  -13.00973
       O    -7.65855  -16.21342  -12.54642
      H1    -8.45174  -16.37956  -13.11128
       H   -17.28108  -16.81072   -2.55423
       O   -18.01153  -17.38942   -2.93693
      H1   -17.69235  -18.22991   -2.65557
       H    -7.65190  -15.34007  -10.91391
       O    -7.33481  -14.45299  -10.58263
      H1    -7.54499  -14.49602   -9.63071
       H   -12.92619  -13.58811  -11.59134
       O   -13.57342  -14.06565  -12.18464
      H1   -13.88835  -14.65244  -11.50232
       H    -7.93252  -17.65597   -9.13438
       O    -7.02182  -17.93780   -8.94433
      H1    -6.63615  -18.15253   -9.76634
       H   -12.51694  -18.94125   -6.65460
       O   -11.84103  -18.41876   -7.05673
      H1   -11.06941  -18.69983   -6.54927
       H   -10.39721  -11.88030   -0.58299
       O   -10.58430  -11.95575   -1.52285
      H1   -10.91685  -11.06854   -1.69627
       H   -19.01362  -18.25708   -9.10882
       O   -18.62448  -18.90423   -8.44692
      H1   -18.74971  -18.40762   -7.60774
       H   -15.50376  -16.97293  -15.50134
       O   -15.49296  -17.05465  -14.55081
      H1   -15.99624  -17.83997  -14.31839
       H   -10.49741  -19.18637  -15.44243
       O    -9.68690  -18.96532  -14.87147
      H1    -9.85184  -18.03596  -14.71541
       H   -14.75215  -14.69461   -3.21151
       O   -14.25083  -14.99349   -2.45594
      H1   -14.27619  -14.19362   -1.88501
       H   -15.36964  -15.82955   -1.44620
       O   -16.13836  -16.43671   -1.24364
      H1   -16.76250  -15.79643   -0.88377
       H   -15.31253  -17.82628   -0.29233
       O   -14.69823  -18.55796   -0.28929
      H1   -14.35798  -18.57441   -1.24570
       H   -10.09578  -12.88718  -11.48568
       O   -10.90924  -13.39162  -11.34662
      H1   -10.75370  -14.22708  -11.81635
       H   -13.46752  -17.74595    0.75713
       O   -12.72550  -17.42014    1.25276
      H1   -12.19493  -18.23703    1.30379
       H   -17.13111  -15.26809  -11.92916
       O   -17.71244  -15.59558  -11.24688
      H1   -17.81305  -14.89324  -10.58479
       H   -10.95497  -16.79954    0.96149
       O   -10.09616  -16.45490    0.67447
      H1    -9.53712  -16.95975    1.22729
       H    -3.96890  -19.16790   -5.97961
       O    -4.35788  -18.68006   -6.74194
      H1    -5.27145  -18.43227   -6.39256
       H   -14.81215  -16.35593  -10.26204
       O   -13.94111  -16.44849  -10.69524
      H1   -13.42129  -15.98682  -10.02152
       H   -13.56971  -18.58761   -3.28054
       O   -13.85505  -19.40126   -2.79264
      H1   -14.77374  -19.43060   -3.15088
       H    -7.57933  -18.19628  -12.08667
       O    -8.00797  -18.97641  -11.70401
      H1    -8.50986  -18.59554  -10.97697
       H   -14.79456  -12.35625   -4.58392
       O   -14.69769  -11.43731   -4.33233
      H1   -13.88683  -11.43772   -3.80355
       H   -14.25032  -11.81862   -7.51978
       O   -13.61660  -11.44437   -6.88293
      H1   -14.03472  -11.37895   -6.01559
       H    -6.85007  -17.27119   -7.13457
       O    -6.76838  -17.52641   -6.18202
      H1    -6.73703  -16.67178   -5.76944
       H    -3.96969  -15.73284   -8.46189
       O    -4.54089  -14.95963   -8.26720
      H1    -4.65901  -14.55451   -9.16950
       H   -16.93163  -17.92867   -9.15947
       O   -16.39982  -17.26280   -9.58393
      H1   -17.07659  -16.88709  -10.21072
       H    -3.41007  -17.88979   -8.24794
       O    -3.18671  -17.28335   -8.98083
      H1    -2.19009  -17.17871   -8.85936
       H   -15.13801  -16.23220   -7.09453
       O   -16.07853  -16.21442   -7.19349
      H1   -16.06671  -16.69772   -8.05358
       H   -17.94860  -17.76078   -4.83508
       O   -17.93546  -17.92685   -5.79952
      H1   -17.26017  -17.31052   -6.12782
       H   -10.54046  -14.79548   -8.38000
       O   -11.00174  -15.11792   -9.13942
      H1   -10.88073  -14.43517   -9.84325
       H    -9.10252  -15.74775  -15.33467
       O    -9.62888  -16.15987  -14.57204
      H1   -10.41932  -15.65056  -14.67015
       H    -5.59783  -15.89747   -4.47581
       O    -6.47553  -15.61186   -4.28569
      H1    -6.62837  -15.78594   -3.36989
       H   -13.70251  -16.47576   -3.23853
       O   -13.23185  -16.98904   -3.95957
      H1   -12.30312  -16.68778   -3.81800
       H   -16.81445  -13.89016   -4.42988
       O   -16.00688  -14.29350   -4.77312
      H1   -15.88002  -14.18429   -5.71883
       H    -8.61407  -19.61949   -6.59611
       O    -9.23368  -19.13542   -6.01290
      H1    -8.88153  -18.19778   -6.10479
       H    -8.88346  -19.04022   -4.11205
       O    -8.78707  -18.90699   -3.16670
      H1    -8.92735  -17.96907   -2.97556

