180
frame 9 | Written by MDAnalysis XYZWriter (release 2.4.3)
       H    18.16872    6.12967    4.59180
       O    18.03462    6.28658    3.62595
      H1    17.32948    5.60954    3.39620
       H    11.69007    6.33757    8.64023
       O    12.40957    5.85749    8.13822
      H1    12.58387    6.43364    7.36325
       H    17.99369   11.96455    3.61030
       O    18.02205   12.89381    3.95734
      H1    17.16039   13.03406    4.38122
       H    12.71306   15.26824   -1.09498
       O    11.97045   15.38670   -0.44673
      H1    11.45864   16.00705   -0.91253
       H    14.99900   12.19550    4.97697
       O    15.49330   13.04328    4.97386
      H1    14.91471   13.63756    4.43579
       H    17.30540   11.31104    0.33368
       O    17.83070   10.55356    0.17221
      H1    18.73056   10.77176    0.36315
       H    17.60399    7.92148    5.65962
       O    17.07657    8.45794    5.04579
      H1    16.99792    7.82124    4.29697
       H    13.76550    6.54630   11.14132
       O    14.16342    6.20916   10.31204
      H1    13.41868    6.03959    9.72243
       H     9.89718    9.69270    5.18485
       O    10.51364    9.12956    5.67955
      H1     9.93471    8.31736    5.76980
       H    15.86913   10.50620   -2.58216
       O    16.32008    9.68309   -2.49572
      H1    16.72107    9.69535   -3.36644
       H    16.44936   14.20627    1.48026
       O    16.85056   14.67761    2.25875
      H1    17.60251   14.07913    2.48148
       H    17.39604    8.76186   -1.30896
       O    17.87344    7.97151   -0.98197
      H1    17.93609    8.15066   -0.02757
       H    17.82347    9.07391    2.13733
       O    17.64849    8.14087    1.86943
      H1    18.02479    7.59015    2.59100
       H    18.18199    1.91085    5.36166
       O    19.09742    2.21488    5.50559
      H1    19.31173    1.53750    6.15778
       H    10.72329   11.87275   -2.12486
       O    11.62326   11.66352   -2.55699
      H1    12.17180   11.66757   -1.77965
       H    16.97448    7.76462   13.09655
       O    17.04147    8.34948   12.29165
      H1    17.97553    8.69771   12.21599
       H    15.41742   13.86806   11.20989
       O    14.48416   14.04522   10.86510
      H1    14.51059   13.60792   10.00179
       H    17.41866   15.76567    8.64458
       O    18.29137   15.34183    8.93263
      H1    18.95715   15.92295    8.43936
       H    15.27487   12.20180    0.30866
       O    16.05441   12.77438    0.36152
      H1    16.20954   12.98423   -0.57927
       H    12.74342   10.20741   -3.60460
       O    13.11135    9.34875   -3.73090
      H1    13.19030    8.94769   -2.83253
       H    11.96668    6.92081    2.68547
       O    12.84165    6.91871    3.08305
      H1    13.44735    7.51064    2.53738
       H    14.41469   13.02789   -2.48116
       O    14.94027   12.30404   -2.82752
      H1    14.59073   12.26746   -3.73176
       H    15.42235    2.70583    2.60853
       O    15.46267    2.92799    3.54483
      H1    14.60013    2.65208    3.83251
       H    15.61834    8.17582    1.83822
       O    14.72359    8.56549    1.90359
      H1    14.78195    9.13690    1.10107
       H    17.40073   13.56914   -4.44929
       O    17.25291   13.59762   -3.47496
      H1    16.33633   13.29596   -3.39793
       H    18.06143    4.93739    6.98384
       O    18.49693    4.93802    6.08176
      H1    18.66617    3.98827    5.99952
       H    12.05053   12.56076    2.32966
       O    11.52895   11.73738    2.29461
      H1    12.13148   11.15057    2.84058
       H    15.01266    4.48945    3.13529
       O    15.00759    5.31426    2.59720
      H1    14.20152    5.75247    2.86218
       H    14.24397   10.02816    5.06820
       O    15.09704   10.38287    5.53413
      H1    15.73162    9.62343    5.42287
       H    18.40555   13.73743   -1.05069
       O    18.52294   14.55820   -0.58882
      H1    18.83718   14.23776    0.24190
       H    18.11377   16.94995   -2.40945
       O    17.48090   16.78947   -1.68367
      H1    17.86100   16.04106   -1.13102
       H    11.45704    5.92127    0.99299
       O    11.30376    6.80694    0.62717
      H1    10.66456    7.14633    1.29743
       H    16.42863    7.06374   -0.41110
       O    15.61532    6.49858   -0.54147
      H1    15.50134    6.03106    0.26690
       H    18.00150   17.57442    3.47426
       O    17.95599   17.50098    4.46303
      H1    16.98189   17.58264    4.59302
       H    17.23687   14.73638   12.41603
       O    16.91300   13.88563   12.15318
      H1    17.48641   13.58724   11.39528
       H    12.25667   11.20904    0.63203
       O    13.06041   11.06349    0.05707
      H1    13.16942   10.12743   -0.11602
       H    12.11151    7.89980    5.97381
       O    12.96625    7.44781    5.95801
      H1    13.10567    7.25204    5.01004
       H    11.37611   14.68860    2.25780
       O    12.29084   14.36964    2.09916
      H1    12.42140   14.70252    1.21812
       H    12.07365   10.06296    4.82479
       O    12.68551   10.02375    4.06899
      H1    12.45060    9.17072    3.68478
       H    14.80223   18.01505    5.31246
       O    15.39987   17.23935    5.21687
      H1    14.96972   16.66638    4.63239
       H    18.01321   11.60961   -1.31023
       O    18.71112   11.98580   -1.89720
      H1    18.13102   12.39526   -2.55407
       H    12.66307    7.57528   -1.00159
       O    13.47146    8.15702   -0.86876
      H1    14.14815    7.51029   -0.83971
       H    19.15211   10.76518   -3.49711
       O    18.71651   10.29477   -4.29494
      H1    19.37636   10.56482   -4.96307
       H    14.28780   16.10218    6.14614
       O    13.71537   15.52347    6.66411
      H1    13.11256   16.21137    7.02082
       H    13.75658   11.14391    7.78694
       O    13.55646   10.30492    8.30684
      H1    13.92649    9.67418    7.65358
       H    10.74622   14.85111    6.30337
       O    11.23984   14.72658    5.44632
      H1    12.14118   14.95740    5.71273
       H    19.15885   13.63233    5.25029
       O    19.48714   13.84073    6.16546
      H1    19.35045   14.79266    6.20240
       H    13.65522   15.19269    3.07191
       O    14.46722   15.23821    3.57910
      H1    15.02958   14.88126    2.83810
       H    15.14421   12.55840    7.88316
       O    14.35882   13.08564    8.11603
      H1    14.12817   13.66186    7.38037
       H    17.89070    7.41152    7.91798
       O    18.48944    7.82021    7.28170
      H1    19.25294    7.21937    7.30389
       H    18.80823    7.42594   -2.48813
       O    19.24838    7.62098   -3.38476
      H1    19.13930    8.59244   -3.46870
       H    18.51513   13.55225    9.46880
       O    18.76169   12.95551   10.18694
      H1    18.50640   12.05683    9.86753
       H    16.32623    4.37247    8.94516
       O    16.28066    3.60720    8.38530
      H1    16.47497    3.01366    9.07511
       H     9.98433   11.80044    3.98909
       O     9.33546   11.35922    4.55293
      H1     9.45578   11.87205    5.41325
       H    17.16087   17.93951    7.49744
       O    16.46324   17.35365    7.74419
      H1    16.11906   17.15790    6.87386
       H    17.52462    6.89298   10.06701
       O    16.87002    6.43242    9.53384
      H1    16.01808    6.69763    9.99534
       H    11.21149   12.10894    9.60335
       O    11.00899   11.28619    9.13111
      H1    11.95348   11.13189    8.85956
       H    16.42688    6.29950   -3.96769
       O    16.26466    6.90530   -4.71661
      H1    16.99170    7.54283   -4.53561
       H    17.37664   16.63334    1.62184
       O    18.03717   17.27606    1.75499
      H1    17.61958   18.07531    1.28843
       H    17.78776    9.64944    4.19430
       O    18.37338   10.33713    3.69325
      H1    19.27397    9.99801    3.74926

