180
frame 6 | Written by MDAnalysis XYZWriter (release 2.4.3)
       H     8.22972   -0.32514   -0.29798
       O     8.33978   -1.23838   -0.46723
      H1     9.02579   -1.67213    0.08399
       H     6.33971   -0.14162    2.44733
       O     6.56016   -0.97884    2.84241
      H1     6.40915   -1.63053    2.09704
       H    -1.98572    4.06098    0.33345
       O    -1.33322    3.82851   -0.36980
      H1    -1.40901    2.86245   -0.28637
       H     1.94593    3.71241    2.02912
       O     1.66143    4.32071    2.74876
      H1     1.56670    5.13361    2.31578
       H     7.07646    4.13386    3.89587
       O     7.23217    3.16579    3.98391
      H1     6.87870    3.01303    4.87961
       H     2.56574    3.59166    9.39571
       O     3.09014    4.06788   10.05586
      H1     3.86011    3.43447   10.23701
       H     0.02327    5.27256    4.40393
       O     0.40275    5.92047    5.03951
      H1     1.38244    5.80017    5.07309
       H     4.40707   -7.03799    6.27641
       O     4.62981   -6.28448    6.95556
      H1     4.92682   -5.59530    6.30790
       H     6.83027   -2.09924    0.24279
       O     6.24829   -2.60671    0.78447
      H1     5.47776   -2.83636    0.22519
       H     2.75337    5.24448    0.01467
       O     3.06630    4.35615   -0.15558
      H1     2.44702    3.67654   -0.19663
       H     1.24529   -6.16859    3.76726
       O     0.50456   -6.76578    3.76797
      H1     0.21987   -6.93919    4.68778
       H     4.78021   -3.20789    8.35982
       O     5.33018   -3.28189    9.12797
      H1     4.77085   -3.89889    9.67845
       H    -1.32844   -4.40381    0.95496
       O    -1.25785   -3.94710    0.07702
      H1    -0.62136   -4.54798   -0.33708
       H     1.12054    1.38634   -0.91970
       O     1.81131    1.89637   -0.50080
      H1     2.50928    1.24378   -0.36210
       H     2.96006   -2.21484    7.03231
       O     3.52771   -2.99219    6.94708
      H1     2.95155   -3.73563    7.20602
       H     6.17210   -5.62653    1.96544
       O     7.00953   -5.17177    1.78016
      H1     6.81887   -4.32583    1.41918
       H     2.78571    6.40498    6.40142
       O     3.07520    6.15073    5.53136
      H1     3.82523    5.51599    5.75384
       H     4.64421   -0.04365    5.26949
       O     3.93604    0.62036    5.03342
      H1     4.02526    1.44162    5.57120
       H     0.04837   -1.93936    2.96341
       O     0.72364   -2.35934    3.51886
      H1     0.76205   -1.94499    4.36619
       H     1.84556   -2.58849   -0.87230
       O     2.39317   -3.23802   -1.36965
      H1     2.34037   -3.10574   -2.35495
       H     5.91709    5.29870    5.16904
       O     5.38364    4.87664    5.87484
      H1     5.91595    5.01585    6.69247
       H     1.40118   -4.97237   -1.19410
       O     0.78835   -5.71187   -1.04724
      H1     0.93258   -6.31744   -1.82215
       H     4.79203   -3.73103    5.30184
       O     4.91412   -4.53720    4.78085
      H1     4.10261   -4.64056    4.18036
       H     9.73567   -1.68226    4.14900
       O     9.46375   -0.81115    3.78751
      H1     8.52096   -0.86714    3.49510
       H    -2.82481    1.98396    4.38058
       O    -3.80160    1.91901    4.29817
      H1    -3.83460    1.24076    3.57998
       H     2.91474   -4.60516    1.94734
       O     2.51387   -4.79645    2.82376
      H1     1.79896   -4.15309    2.93116
       H     6.18096    2.90194    0.43378
       O     6.56062    3.55619   -0.19195
      H1     5.79880    3.98619   -0.51441
       H     5.81202    0.16820   -1.98485
       O     5.12048   -0.36981   -2.30401
      H1     4.41474   -0.32790   -1.62785
       H    -0.15067   -3.44155    8.30026
       O    -0.92008   -2.90263    8.54735
      H1    -1.02437   -2.24209    7.86393
       H     2.46036   -0.23619    9.97387
       O     2.61031   -1.19190    9.73643
      H1     3.51850   -1.29257    9.48335
       H     1.75375    4.35083   -3.09573
       O     1.76267    3.37801   -2.91124
      H1     2.22328    3.31784   -2.07843
       H    -1.80015   -1.24282   -2.01163
       O    -0.86874   -1.13507   -2.16438
      H1    -0.70753   -0.21976   -2.35471
       H     2.96446   -0.11515    3.48517
       O     2.80257   -0.67021    2.72229
      H1     2.32599   -1.41944    3.04845
       H     6.97210    0.59481    6.00924
       O     7.15257    1.51373    6.23699
      H1     8.05601    1.58404    6.54754
       H    -1.46184    3.75222    3.63359
       O    -1.67823    4.67216    3.59856
      H1    -2.34074    4.89675    4.27876
       H     7.30283    1.48011    1.43917
       O     6.44136    1.55626    1.86338
      H1     6.64065    2.14606    2.56278
       H     7.50123   -5.36405    3.36988
       O     7.86166   -5.49704    4.31843
      H1     8.47487   -6.25160    4.25399
       H     0.66999   -0.81547    6.40137
       O    -0.18686   -1.02182    6.04059
      H1    -0.43598   -0.28703    5.47538
       H    -0.92289    1.90345   -2.47365
       O    -0.06100    1.49413   -2.55986
      H1     0.50208    2.17901   -2.86528
       H     6.17141    0.43256    8.13379
       O     5.30666    0.52369    8.59379
      H1     5.51965    1.27947    9.19682
       H     7.41110    1.57359   -2.77333
       O     7.18533    1.53213   -1.81594
      H1     6.92325    2.46585   -1.54895
       H     9.81748   -1.23865    7.21530
       O     9.18206   -0.53675    6.89254
      H1     9.11500   -0.53861    5.91912
       H     3.10401    0.05376    6.64371
       O     2.37756   -0.40057    7.10163
      H1     2.70707   -0.58808    7.99584
       H     6.80909   -2.18870    5.73232
       O     6.31217   -1.42222    5.40676
      H1     6.38039   -1.39155    4.41904
       H    -0.67736    3.78390    6.90517
       O     0.03053    3.44969    6.36691
      H1     0.18629    4.15963    5.76337
       H     1.17336    3.05984    7.63177
       O     1.86677    2.62421    8.18835
      H1     2.68789    2.67641    7.70976
       H     0.11738    0.24681   10.66324
       O     0.81867    1.01018   10.61179
      H1     0.83672    1.39291    9.68246
       H     1.37865   -5.34520    7.15093
       O     1.38255   -4.62501    7.71602
      H1     1.78079   -4.98495    8.51227
       H     3.53821   -4.13070   -0.26847
       O     3.86269   -4.56525    0.56585
      H1     3.92413   -5.48828    0.35224
       H    -1.99543   -1.66502    2.36693
       O    -1.16026   -1.53035    1.94212
      H1    -1.09243   -2.16704    1.22070
       H    -1.27561    0.35496    0.33276
       O    -1.73403    1.05484   -0.15161
      H1    -2.61077    1.16326    0.18883
       H     8.38486   -3.87994    6.83485
       O     8.18437   -3.45597    6.02173
      H1     7.91292   -4.22277    5.44606
       H    -0.32892    2.03129    4.88780
       O    -0.72466    1.50994    4.14896
      H1    -0.19962    1.58029    3.33938
       H     1.21367    1.64155    1.13948
       O     1.08390    1.31173    2.05366
      H1     1.61224    0.54850    2.13489
       H     4.82420    2.05269    7.46351
       O     4.29054    2.61462    6.91942
      H1     4.91229    3.23051    6.44339
       H     4.80497    0.69920    0.70714
       O     3.98582    0.28311    0.45886
      H1     3.62850   -0.10722    1.28325
       H    -2.24500   -4.15444    2.97458
       O    -1.73344   -4.89713    2.60692
      H1    -1.09496   -5.21731    3.27962
       H     0.59867   -1.04232    0.81304
       O     1.06766   -1.37338    0.03880
      H1     0.36841   -1.33264   -0.65433
       H    10.46156    2.05043    4.36319
       O    10.00281    2.90021    4.54024
      H1     9.15132    2.81113    4.14952
       H     8.94664    1.94569   -0.25623
       O     8.86910    1.71274    0.67400
      H1     9.69727    2.00764    0.99605

