180
frame 3 | Written by MDAnalysis XYZWriter (release 2.4.3)
       H    -1.49372    0.41301  -13.79100
       O    -1.40983   -0.22346  -13.02694
      H1    -2.20904   -0.07422  -12.48380
       H    -2.24748   -3.30821  -13.22998
       O    -2.36070   -2.70965  -14.01316
      H1    -2.02549   -1.85333  -13.73635
       H    -3.56126    2.03312  -18.08134
       O    -3.15710    1.48385  -17.45642
      H1    -2.40281    1.25371  -17.96174
       H     2.51924    1.68997   -9.17259
       O     1.98078    2.30707   -9.63249
      H1     1.83995    1.85719  -10.44948
       H     0.01402   -2.97609   -7.52179
       O     0.34871   -3.04222   -6.64311
      H1     0.59977   -4.00790   -6.58732
       H     3.82007    2.16553  -13.36594
       O     4.30111    1.45602  -12.90596
      H1     4.71588    1.88939  -12.12412
       H     7.08419   -6.11856  -11.78225
       O     7.63953   -5.31709  -11.87351
      H1     7.45230   -4.98607  -12.77931
       H     9.86285   -2.66146  -13.78232
       O     9.10802   -2.23334  -13.27072
      H1     8.86705   -1.40355  -13.80229
       H     0.67549    4.61346  -13.25122
       O     0.61248    4.84492  -12.27362
      H1     0.73463    3.98687  -11.85628
       H    -5.25384   -1.24551  -16.45859
       O    -4.54262   -1.11136  -17.12424
      H1    -5.07123   -0.78738  -17.88795
       H     3.76907   -2.74368   -9.61745
       O     3.03744   -3.19048   -9.17560
      H1     2.96315   -2.72160   -8.31122
       H     6.31898    2.45098  -14.61874
       O     6.57601    1.58881  -14.34883
      H1     5.86404    1.44494  -13.68366
       H     7.84409    0.46559  -14.58647
       O     8.47837   -0.19800  -14.93903
      H1     9.33840    0.29930  -14.82581
       H     0.27896   -2.16963  -12.70548
       O    -0.02308   -2.46888  -11.83118
      H1     0.53678   -3.14808  -11.47407
       H     1.29495    2.21613  -13.30648
       O     1.90036    2.59063  -13.97059
      H1     1.31598    2.93178  -14.67086
       H    -0.19803    0.87964  -12.18790
       O     0.11926    1.79731  -12.08755
      H1    -0.80337    2.11436  -11.78492
       H     2.81397   -7.93311  -18.85115
       O     3.61509   -8.27376  -18.46806
      H1     4.22580   -7.98854  -19.14667
       H    -2.52499   -5.02817  -10.21117
       O    -2.57134   -5.59074   -9.41980
      H1    -3.34203   -5.15680   -8.97758
       H     2.00474   -0.55064  -10.02229
       O     1.62527   -0.33930  -10.91517
      H1     1.04117   -1.02137  -11.17834
       H     0.64198    3.99331  -19.58396
       O    -0.21303    4.29553  -19.22671
      H1    -0.30311    3.69074  -18.45147
       H     2.05280   -4.38728  -10.70121
       O     1.40707   -4.92735  -11.12296
      H1     1.27005   -5.66017  -10.49909
       H     4.24498    1.57670  -18.67549
       O     3.83115    2.32187  -18.17784
      H1     3.67716    1.88981  -17.30441
       H    -1.66243   -7.86341  -13.64386
       O    -1.31187   -6.92726  -13.45569
      H1    -0.43813   -7.11152  -13.01943
       H     3.68199   -5.99330  -16.10990
       O     4.30408   -6.71632  -16.19902
      H1     3.90944   -7.28257  -16.84608
       H     2.22317   -9.72288  -10.67060
       O     1.42556   -9.56852  -11.15523
      H1     1.56818   -8.69799  -11.50664
       H     2.01033   -6.53322  -12.37398
       O     1.85455   -7.42198  -12.74587
      H1     2.71091   -7.54253  -13.19480
       H     2.53148    0.44502  -16.14500
       O     3.49065    0.36227  -15.77474
      H1     3.45475    0.47405  -14.77508
       H    -1.20037   -2.89468  -17.15670
       O    -1.35701   -3.57356  -16.54531
      H1    -1.61739   -3.03164  -15.76332
       H     3.28416   -0.87862  -11.56909
       O     3.96284   -1.57646  -11.62687
      H1     4.34645   -1.39991  -12.49895
       H    -0.98942   -0.80326  -18.64397
       O    -0.96286   -0.40740  -17.80685
      H1    -1.87287   -0.62415  -17.50971
       H    -3.19989    1.06038  -15.56789
       O    -3.52701    1.25076  -14.68231
      H1    -3.61074    2.23551  -14.70074
       H     6.44313   -1.01655   -9.42767
       O     5.98645   -0.22855   -9.76795
      H1     5.27602   -0.59316  -10.31535
       H    -1.04060   -4.27744  -12.00611
       O    -1.96345   -4.60182  -11.90676
      H1    -1.89721   -5.41356  -12.38733
       H     0.80114   -6.62816  -15.63948
       O     0.50237   -7.53405  -15.62108
      H1    -0.07095   -7.53266  -14.84231
       H    -1.45115   -2.25472   -7.85083
       O    -0.97204   -2.04603   -8.64827
      H1    -0.60759   -1.15574   -8.57691
       H     9.49399   -4.94578  -15.93844
       O     8.97430   -4.29171  -16.41932
      H1     8.09004   -4.27072  -15.99496
       H    -2.78157   -4.34717  -17.51159
       O    -3.26033   -4.56010  -18.35847
      H1    -4.17853   -4.37052  -18.06413
       H     1.20708   -6.59401  -18.38245
       O     1.97176   -6.06811  -18.15550
      H1     1.93514   -5.32694  -18.74878
       H    -1.54797   -9.14226  -17.07087
       O    -1.89286   -8.22806  -16.85110
      H1    -1.08920   -7.85757  -16.42092
       H    -0.26828    1.71308   -8.06988
       O    -0.41525    0.85121   -8.51826
      H1     0.17307    0.83406   -9.28312
       H    -3.97510   -0.53260  -11.99784
       O    -3.56364    0.09506  -11.42089
      H1    -4.19826    0.84263  -11.65217
       H     3.85945   -3.32119  -13.41331
       O     4.53582   -3.32384  -14.05951
      H1     4.03913   -3.13351  -14.84992
       H     6.57929   -3.87743  -10.62712
       O     6.37029   -3.45137   -9.80919
      H1     5.98316   -4.23404   -9.30149
       H     6.91701    2.50367  -17.01758
       O     7.63459    1.85573  -16.89109
      H1     7.29168    1.30308  -16.15778
       H    -0.62274   -6.14575   -8.75683
       O     0.32707   -6.42659   -8.80774
      H1     0.32881   -7.31180   -8.49849
       H     6.07956   -0.34071  -19.36803
       O     5.55147   -1.18637  -19.12851
      H1     6.18955   -1.77326  -19.54499
       H     6.34241   -3.89549  -14.02835
       O     7.21898   -4.21526  -14.04806
      H1     7.76214   -3.45210  -13.79442
       H     6.48753   -7.04272  -18.66687
       O     6.70766   -6.82019  -17.72691
      H1     5.88549   -6.80636  -17.26673
       H     3.81681   -6.21513   -8.40559
       O     4.28914   -5.41355   -8.70442
      H1     3.59155   -4.72888   -8.73443
       H     1.58235   -8.94140  -15.22074
       O     2.18790   -9.60434  -14.83408
      H1     1.54679  -10.04974  -14.22325
       H     5.23699   -6.74266  -10.11388
       O     5.87394   -7.46508  -10.33365
      H1     5.49486   -8.08447  -10.97328
       H     4.35612    0.44661   -9.12470
       O     3.48563    0.19294   -8.72133
      H1     3.74683   -0.41082   -7.99454
       H    -3.90346   -1.92209  -13.68077
       O    -4.63435   -1.72190  -13.05965
      H1    -4.71517   -2.58449  -12.63646
       H    -0.95329    3.68446  -16.36809
       O    -0.84187    2.86517  -16.88702
      H1    -1.80101    2.56391  -17.00778
       H    -3.94079   -1.15207   -9.92953
       O    -3.90167   -1.88685   -9.29446
      H1    -2.98091   -2.09558   -9.24008
       H     4.69665   -7.74799  -14.55262
       O     4.52461   -8.18175  -13.68690
      H1     3.76307   -8.75695  -13.89893
       H     3.90261   -1.27691  -16.29135
       O     3.89032   -2.26886  -16.38747
      H1     4.40292   -2.27369  -17.25287
       H    -0.00568    1.17096  -15.94126
       O     0.49738    0.36424  -15.85672
      H1     0.16119   -0.24140  -16.53374
       H     1.29295   -5.12801  -16.78665
       O     1.17262   -4.80771  -15.86632
      H1     0.26310   -4.38501  -15.93614
       H     1.67705   -2.33256  -14.75260
       O     1.57311   -1.65318  -14.07547
      H1     1.21590   -0.88393  -14.64423

