180
frame 3 | Written by MDAnalysis XYZWriter (release 2.4.3)
       H     1.08029   -1.46225    5.69198
       O     0.48136   -1.15274    4.94695
      H1    -0.39103   -1.40697    5.16235
       H    -1.03980    1.49666   14.06053
       O    -1.35277    2.34032   14.43826
      H1    -1.39386    2.84417   13.62204
       H    -8.20556    1.38867    8.65534
       O    -7.70908    1.30574    9.49931
      H1    -8.38195    1.71376   10.13088
       H    -0.02330   -3.90091    6.01209
       O     0.38200   -4.74805    6.09316
      H1     0.93011   -4.64122    6.91795
       H    -3.47021   -6.05969    4.49058
       O    -4.37366   -6.41257    4.28787
      H1    -4.75053   -6.29012    5.18794
       H    -3.49258   -1.38364    9.87971
       O    -3.91441   -2.05627    9.34836
      H1    -3.18472   -2.60907    9.01711
       H     1.97105    1.21771    7.01120
       O     1.84006    0.59586    7.77173
      H1     1.80269    1.21549    8.53615
       H    -9.59747   -1.59995    7.47466
       O   -10.48211   -1.59640    7.13294
      H1   -10.46131   -2.58146    6.79895
       H    -1.37416    4.32199   10.55333
       O    -1.52499    3.63386    9.88363
      H1    -2.30982    3.99667    9.40992
       H    -3.69300    3.24507    7.78146
       O    -3.69915    4.17895    7.99056
      H1    -4.38338    4.26982    8.66638
       H    -7.47316   -5.00586   15.54038
       O    -6.77157   -4.47868   15.10618
      H1    -7.19862   -3.63642   14.87819
       H    -2.07929   -4.61553   11.70542
       O    -1.59049   -3.96580   11.14473
      H1    -1.22251   -4.61094   10.46649
       H    -3.68788   -3.61971   12.50765
       O    -4.07583   -2.78745   12.18575
      H1    -3.72036   -2.68069   11.24224
       H     0.13323   -0.36164    8.32995
       O    -0.62371   -0.94215    8.56842
      H1    -0.90016   -0.52501    9.34292
       H     0.94577    0.16355   10.39755
       O     1.72503   -0.29605   10.69481
      H1     1.55711   -1.13741   10.25430
       H    -4.03826    2.86061   12.83239
       O    -4.43715    2.10880   12.46525
      H1    -4.07592    1.34032   12.95030
       H    -1.00586   -5.91911    6.62557
       O    -1.62148   -6.50092    7.08381
      H1    -2.51127   -6.29533    6.69945
       H    -6.36379    4.14569    9.77270
       O    -5.91003    3.37975    9.40582
      H1    -6.66205    2.73099    9.43054
       H    -8.27673    2.83130    6.86937
       O    -8.87540    2.11360    7.10965
      H1    -9.61055    2.17100    6.45465
       H    -5.58164   -1.05950    3.63183
       O    -5.24100   -1.68694    2.99800
      H1    -5.53165   -1.30115    2.14331
       H    -4.89677    1.12094    7.07712
       O    -4.63073    1.99717    6.76726
      H1    -5.16204    2.47078    7.42964
       H    -6.82727   -7.85505    7.00214
       O    -7.75764   -7.66408    6.79571
      H1    -8.24568   -7.53340    7.60627
       H    -2.43790   -9.34345    9.13781
       O    -3.13157   -9.23831    9.79299
      H1    -2.67658   -8.52041   10.24055
       H     0.74092   -3.21793   13.43905
       O    -0.23371   -3.40158   13.42350
      H1    -0.50038   -3.24051   12.52577
       H    -2.27355   -1.18078    4.47587
       O    -2.05272   -2.09412    4.77093
      H1    -2.20602   -2.49439    3.88626
       H    -6.18583   -5.32352   13.29351
       O    -6.02711   -5.44788   12.35050
      H1    -6.63753   -6.09521   11.99833
       H    -5.50278   -1.88400   14.66763
       O    -6.12541   -1.60546   15.32002
      H1    -5.77889   -2.14382   16.08814
       H    -2.04923    3.66553    6.71601
       O    -1.56100    3.51401    5.88154
      H1    -0.69784    3.96596    6.04901
       H    -5.11398   -1.73430    8.24444
       O    -5.91673   -1.27208    7.82295
      H1    -6.54639   -1.25717    8.56680
       H    -9.70240   -1.63900    9.06864
       O    -8.73158   -1.47018    9.14677
      H1    -8.55925   -0.59449    9.48357
       H     2.60324   -5.95837    8.65347
       O     1.76408   -5.85636    8.20302
      H1     1.71782   -6.71834    7.74553
       H     2.74779   -2.48143   12.95964
       O     2.14146   -1.79203   13.22672
      H1     1.89850   -1.44056   12.40463
       H    -0.05576   -1.08179   13.71955
       O    -0.36911   -0.18144   13.95195
      H1    -0.60188   -0.28996   14.93928
       H    -7.97413   -2.76084   10.51870
       O    -7.94498   -3.62144   10.93324
      H1    -7.03738   -3.63836   11.21363
       H    -2.46156   -4.34111    2.00331
       O    -2.39195   -4.02640    2.92724
      H1    -1.90846   -4.78387    3.35141
       H    -5.90830    1.14917   12.26102
       O    -6.56497    0.50093   11.95974
      H1    -6.93630    0.88559   11.15832
       H     0.64940   -2.67567    9.42309
       O     1.58701   -2.76268    9.44602
      H1     1.93255   -2.57160    8.56655
       H    -2.35132    1.12284    4.43774
       O    -2.55429    0.36601    3.85935
      H1    -3.54721    0.33746    4.05073
       H     0.20414   -6.26051    9.49305
       O    -0.71352   -6.02748    9.54197
      H1    -1.02096   -6.26175    8.62462
       H    -0.69547   -3.47702   15.22125
       O    -0.71188   -3.57962   16.19024
      H1     0.20002   -3.34786   16.40251
       H     0.36834   -5.89960   14.54228
       O    -0.48010   -5.94171   14.06836
      H1    -0.46185   -5.03962   13.71570
       H    -3.84175    0.48592   15.63815
       O    -3.52863    1.18843   16.25568
      H1    -3.78698    1.96014   15.74968
       H    -0.08953    1.97283   12.01063
       O    -0.44173    1.45955   11.26532
      H1    -0.82492    2.11323   10.70978
       H    -9.65179   -4.56690    5.53215
       O    -9.95290   -4.32206    6.43932
      H1    -9.19649   -4.39018    6.96884
       H    -7.54831   -3.17368    8.14627
       O    -7.64503   -4.15221    8.02361
      H1    -7.32803   -4.49791    8.89859
       H    -8.49562   -1.32820   13.49168
       O    -8.70189   -1.14254   12.56263
      H1    -7.97888   -0.50529   12.36670
       H    -5.30788   -5.81387    7.75497
       O    -5.45293   -5.42981    6.88626
      H1    -6.23684   -4.90891    7.01452
       H    -2.80328    0.09075   11.20744
       O    -2.31302   -0.78770   11.25249
      H1    -1.57826   -0.46280   11.81209
       H    -6.92287   -0.08157    5.44018
       O    -6.06917   -0.57418    5.27690
      H1    -5.79687   -0.87555    6.16675
       H    -4.03553   -3.94467    7.02466
       O    -3.13017   -3.73811    7.29254
      H1    -2.91209   -2.90837    6.74723
       H    -2.66011   -0.54964   13.88310
       O    -3.59882   -0.24317   13.83189
      H1    -3.85008   -0.97543   13.26617
       H    -4.97132   -7.29594    9.37039
       O    -5.28711   -6.42489    9.69844
      H1    -4.86789   -6.24947   10.52472
       H    -9.52422    0.61393    4.87890
       O    -8.55742    0.33244    4.91691
      H1    -8.59070   -0.50968    4.44408
       H    -3.27731   -5.30572   13.95232
       O    -3.23830   -5.40910   12.97703
      H1    -4.23721   -5.36165   12.72316
       H    -2.95520    1.89786    9.51968
       O    -3.66915    1.23665    9.66262
      H1    -4.37321    1.80865    9.96484
       H    -9.09655   -3.65530   12.54278
       O    -9.84109   -4.16843   12.92349
      H1    -9.40239   -5.00526   13.11007
       H    -4.90076    1.88188    4.88014
       O    -4.84388    2.08909    3.94241
      H1    -4.19009    2.77526    3.83791
       H     2.55712   -4.95554   11.66034
       O     2.78020   -4.05118   11.51899
      H1     2.19768   -3.76631   10.81699
       H    -1.37343   -7.04873   10.77688
       O    -1.97907   -7.33551   11.50465
      H1    -2.34711   -6.56027   11.95575
       H    -4.11685   -5.67963   16.65133
       O    -4.12160   -5.22580   15.74162
      H1    -5.01246   -4.85697   15.63192

