180
frame 4 | Written by MDAnalysis XYZWriter (release 2.4.3)
       H   -11.84729    7.30886   14.52950
       O   -10.89043    7.13170   14.35624
      H1   -10.53341    7.68491   15.07284
       H   -12.73534   10.27616   19.30752
       O   -13.00053   10.37971   18.31567
      H1   -13.96657   10.27285   18.38601
       H   -10.01394    7.57169   12.96188
       O    -9.25102    7.88015   12.39124
      H1    -8.46681    7.68811   12.91056
       H   -15.19849    7.44403   11.57030
       O   -15.83491    7.23893   12.23700
      H1   -16.63104    7.23367   11.57440
       H   -13.79265   16.28060   10.16666
       O   -14.46480   16.93368    9.96391
      H1   -14.34408   16.92072    8.99464
       H    -8.08323   16.08029   18.00240
       O    -8.85776   16.47007   18.43129
      H1    -9.50643   16.41328   17.77044
       H    -8.36157   15.93049   14.96339
       O    -8.98158   16.64993   14.78037
      H1    -9.38640   16.26336   13.93436
       H   -13.83144   15.84071   16.73236
       O   -13.25296   15.24298   16.25722
      H1   -13.06384   14.58245   16.96462
       H   -12.82374   10.15859   13.94502
       O   -12.51092   11.03216   13.60799
      H1   -11.58777   10.83958   13.71830
       H   -16.35222   15.49422   14.33885
       O   -17.07265   16.11931   14.28192
      H1   -16.85398   16.65654   15.04074
       H   -10.27152    3.92245   13.98796
       O    -9.98778    4.59493   13.32860
      H1   -10.23678    5.35999   13.79547
       H   -13.25920   16.58785   14.08920
       O   -12.61948   16.82492   13.43141
      H1   -12.48685   17.73514   13.65150
       H   -15.28595   10.14465    7.38072
       O   -16.16493   10.01925    7.83594
      H1   -15.76650    9.54853    8.63262
       H    -6.85500   16.01195   11.90643
       O    -6.66420   15.13051   12.28574
      H1    -5.81503   15.24784   12.75796
       H   -13.99775    8.73637   14.94832
       O   -13.31904    8.45858   14.34923
      H1   -13.84874    7.94694   13.76928
       H    -9.21122   10.97473    8.44705
       O    -8.62539   10.22330    8.22238
      H1    -9.45238    9.57368    8.19723
       H   -13.94227    3.85167   15.73642
       O   -14.41208    4.65101   15.57993
      H1   -14.01481    5.21521   16.24810
       H   -10.09931    4.93142    8.95121
       O    -9.89416    5.65917    9.53305
      H1    -9.34365    5.29112   10.22380
       H   -11.24409   15.68226    9.82529
       O   -10.43264   15.57789    9.27184
      H1   -10.39875   14.64534    9.07130
       H   -10.49362   12.18766    9.69333
       O    -9.98363   12.57627    8.95336
      H1   -10.76865   12.59587    8.33699
       H    -8.45107   12.13258   11.75699
       O    -8.83008   12.51923   12.52042
      H1    -9.26046   11.68610   12.78569
       H    -6.47596   10.62179   15.89242
       O    -6.39205    9.65877   16.09329
      H1    -6.78281    9.18304   15.32967
       H    -6.47980    7.09540   14.00556
       O    -7.23787    7.56349   14.34290
      H1    -7.50417    6.97518   15.09960
       H   -16.49224   10.18496   14.76740
       O   -16.73067    9.25090   15.02655
      H1   -17.65608    9.12721   14.69298
       H   -12.36851    8.72002   17.98659
       O   -11.89274    7.98375   18.34052
      H1   -12.48128    7.27465   18.11858
       H   -12.16839    9.46525    7.75483
       O   -11.21123    9.29416    7.91245
      H1   -11.05711    8.38479    7.55102
       H    -9.87413   10.15908   14.70706
       O    -9.99142   10.34614   13.76622
      H1    -9.75666    9.45155   13.47143
       H    -8.28355    9.97734   18.48461
       O    -8.20515    9.12897   18.03402
      H1    -7.56993    9.40046   17.39662
       H   -16.05916   12.29122   18.78132
       O   -15.40680   12.83894   19.27720
      H1   -15.87843   12.82229   20.11618
       H   -10.75920    8.12695   10.95912
       O   -11.69090    8.25274   11.04957
      H1   -11.96191    7.52347   10.39998
       H    -7.67634   14.13350   13.88997
       O    -7.89368   14.13467   14.83881
      H1    -8.78533   13.78475   14.79165
       H   -18.90330    9.54008   10.42357
       O   -18.57816    9.16639   11.27484
      H1   -17.94959    9.82485   11.59892
       H    -9.20584   14.61261   12.18080
       O    -9.67233   15.46312   12.38778
      H1   -10.59639   15.27062   12.33256
       H    -8.84663    6.45611   11.45840
       O    -8.24029    5.68466   11.52083
      H1    -8.53650    5.37234   12.39366
       H    -7.90265   11.05420    9.92201
       O    -7.43765   10.87216   10.77364
      H1    -6.82190   11.58146   10.84966
       H   -11.64760    5.92976    9.63092
       O   -12.47383    6.37495    9.37177
      H1   -12.43075    6.29941    8.41207
       H   -12.91312   12.30227   17.78219
       O   -12.84432   13.21986   18.00127
      H1   -13.54145   13.31123   18.66011
       H   -11.72896   15.98695   16.44305
       O   -11.07954   16.65460   16.60993
      H1   -10.37997   16.52499   15.96665
       H   -11.02816   11.88787   12.08169
       O   -11.28299   11.97760   11.14501
      H1   -12.05884   11.42685   11.00126
       H    -6.32666    9.64466   11.00661
       O    -5.70706    8.88310   10.84669
      H1    -4.93811    9.47244   10.52179
       H    -4.55813   13.69537   10.78170
       O    -5.15338   13.15924   11.30209
      H1    -5.57374   13.90035   11.77768
       H    -5.45072   12.87591   15.73253
       O    -6.02659   12.32392   15.23426
      H1    -6.80888   12.96376   15.13865
       H   -13.21363   14.53716   11.47512
       O   -12.71152   15.33068   11.10564
      H1   -12.58352   15.81236   11.94032
       H   -13.13052   11.15109    6.74036
       O   -13.64473   10.28121    6.78431
      H1   -13.47243    9.87451    5.91125
       H   -16.28350    5.96454   13.10735
       O   -16.63251    5.24389   13.69605
      H1   -15.90065    5.05965   14.30111
       H   -16.60806   11.91932   13.31009
       O   -16.60281   11.83874   14.27815
      H1   -17.51025   11.74096   14.56355
       H   -13.11341    5.45196   18.52685
       O   -13.06001    5.68303   17.59481
      H1   -12.18528    5.27796   17.58318
       H    -8.41577   11.62603   20.19754
       O    -8.26805   11.60840   19.25564
      H1    -8.95375   12.17967   18.90011
       H   -17.24909   12.66587   11.52552
       O   -16.58789   11.92668   11.55846
      H1   -15.65211   12.33164   11.55229
       H    -5.51492    7.35225   11.91938
       O    -5.55030    6.43213   12.29120
      H1    -6.35406    6.07102   11.87215
       H    -9.44843    9.07896   16.97536
       O   -10.16170    9.06608   16.32421
      H1   -10.88484    8.79029   16.93363
       H   -17.54173   10.92311   17.39814
       O   -17.14380   11.86081   17.39600
      H1   -17.73441   12.15865   16.67698
       H   -14.69264   14.55996   15.29337
       O   -15.16324   14.29524   14.49333
      H1   -15.68135   13.49048   14.74354
       H   -12.55173    9.69412   10.49836
       O   -13.37933   10.20461   10.55940
      H1   -13.55680   10.31660   11.50710
       H    -8.17555    5.61516   16.81326
       O    -8.97802    6.18469   16.56443
      H1    -8.87543    6.89894   17.21481
       H   -12.88388   13.11338    6.83201
       O   -12.05960   12.71824    7.12445
      H1   -11.70172   12.51122    6.24712
       H   -14.25876    8.99925   10.01168
       O   -15.04288    8.51566    9.73412
      H1   -14.56090    7.88133    9.20055
       H    -9.69078   14.76954   19.05761
       O    -9.97338   13.86924   19.20061
      H1   -10.92430   14.01203   18.91324
       H   -13.37544   12.51237   12.41133
       O   -14.11460   13.13618   12.17687
      H1   -14.39447   13.58746   13.00620
       H   -16.91217    9.11356   16.98413
       O   -17.49063    9.24241   17.75856
      H1   -16.79888    9.06841   18.43858

