180
frame 4 | Written by MDAnalysis XYZWriter (release 2.4.3)
       H     2.46142  -18.37776   -1.72426
       O     3.15820  -18.72782   -1.14171
      H1     2.69918  -18.85538   -0.26450
       H     6.58733  -17.02816  -10.07130
       O     7.12174  -17.53569  -10.75501
      H1     8.04898  -17.38908  -10.41227
       H     5.41768  -14.28467   -2.41766
       O     4.98387  -13.67684   -3.11374
      H1     5.73691  -13.27021   -3.51812
       H    -3.25403  -16.43639   -6.24210
       O    -3.70521  -16.27617   -5.41600
      H1    -2.97546  -16.36377   -4.77523
       H     1.31561  -12.16627   -4.64060
       O     1.45956  -12.56807   -3.74658
      H1     0.60301  -12.98391   -3.62028
       H    -1.06056  -13.43308   -9.33592
       O    -1.14507  -13.18127  -10.27077
      H1    -2.13868  -13.09217  -10.43954
       H     1.71487  -16.62403   -9.38730
       O     2.21833  -16.88041   -8.58802
      H1     2.06475  -16.11524   -7.90403
       H     5.69886  -18.04492  -16.07323
       O     5.16973  -18.08630  -15.27458
      H1     5.53895  -17.29262  -14.90565
       H     4.01351  -16.72189   -8.87016
       O     4.73113  -16.30041   -9.39503
      H1     4.32091  -15.57409   -9.82025
       H     4.32362  -19.24849   -6.86379
       O     4.67934  -18.46188   -7.33348
      H1     4.94724  -18.92575   -8.13770
       H    -2.37209  -15.53508  -15.24116
       O    -1.45073  -15.41120  -15.28752
      H1    -1.09062  -15.95190  -14.51527
       H     2.77633  -14.91531  -13.61061
       O     3.29536  -15.58798  -13.16083
      H1     4.12575  -15.21138  -13.03390
       H    -2.13135  -10.87723   -8.13980
       O    -1.79653  -10.20677   -8.73477
      H1    -1.25861  -10.69664   -9.39458
       H     2.51747  -12.11607  -12.40827
       O     3.37300  -12.48981  -12.35267
      H1     3.24930  -13.32519  -12.82730
       H     8.35391  -15.02126   -7.57840
       O     8.90580  -15.76740   -7.36523
      H1     9.22061  -15.56239   -6.45881
       H     7.94542  -11.30493   -6.77706
       O     6.95976  -11.38465   -6.82798
      H1     6.68649  -10.63805   -7.37090
       H    -0.92455  -15.26440   -3.10122
       O    -1.51104  -15.48349   -3.86539
      H1    -2.18819  -14.80104   -3.73689
       H     1.09794  -15.11591  -10.90936
       O     1.38796  -16.04310  -11.03058
      H1     2.00125  -15.97610  -11.84770
       H    -3.61418  -17.71865   -9.32546
       O    -3.85103  -18.44970   -9.91226
      H1    -3.84136  -19.27085   -9.39732
       H     4.55023  -13.63214   -9.15599
       O     3.71079  -13.38710   -8.79638
      H1     3.86699  -13.36139   -7.86116
       H     4.14177   -8.31695   -7.22978
       O     3.58837   -8.41038   -8.04915
      H1     3.79463   -9.28249   -8.39594
       H     6.71706  -16.51334   -3.13728
       O     7.22086  -15.86472   -3.63772
      H1     6.81943  -15.86653   -4.46893
       H     1.18679  -17.79617   -3.37121
       O     1.70435  -17.09319   -2.91228
      H1     2.06441  -16.55231   -3.58794
       H     5.97629  -18.40248   -1.69164
       O     5.42698  -17.77132   -2.20791
      H1     4.56137  -17.83306   -1.86227
       H     0.49734  -16.77332  -13.94705
       O    -0.08474  -16.99494  -13.17216
      H1     0.40725  -16.52151  -12.44270
       H     1.97074  -10.22975  -10.13708
       O     1.10028   -9.88235  -10.49133
      H1     1.40437   -9.01000  -10.74549
       H     2.05056  -14.01907   -7.82940
       O     1.80313  -14.65469   -7.09197
      H1     0.90983  -14.28269   -6.86270
       H    -0.73072  -12.30000   -5.47405
       O    -0.20870  -12.17836   -6.29121
      H1    -0.21730  -11.18657   -6.23463
       H     6.37729  -14.88723  -11.99962
       O     6.25260  -15.32051  -12.86228
      H1     6.71953  -16.13823  -12.59287
       H    -4.40505  -15.86054  -12.39291
       O    -3.48121  -15.93736  -12.23085
      H1    -3.34862  -16.84999  -12.48843
       H    -2.47911  -14.04453  -12.49745
       O    -2.02841  -13.39346  -13.07787
      H1    -1.10448  -13.52485  -12.97442
       H     6.96035  -13.04778   -7.47236
       O     6.98669  -13.98232   -7.89886
      H1     6.43638  -14.61817   -7.34857
       H     7.81530  -18.13121   -7.07937
       O     7.38317  -18.74569   -6.48377
      H1     6.43207  -18.71119   -6.77807
       H    -4.32029  -12.90416  -11.38433
       O    -3.90947  -12.65294  -10.58148
      H1    -3.58818  -11.73292  -10.66792
       H    10.52469  -17.62843   -9.28425
       O     9.86858  -17.00158   -9.57631
      H1     9.62893  -16.51711   -8.80911
       H     0.15297  -18.75303   -9.64041
       O    -0.13491  -18.46744   -8.77337
      H1     0.61873  -17.93500   -8.49220
       H    -3.91721  -12.27811   -6.97807
       O    -3.12720  -12.68031   -7.44812
      H1    -3.53798  -13.42723   -7.94797
       H     4.01966  -10.44662   -6.20428
       O     3.59140  -11.31402   -5.88408
      H1     3.53182  -11.11256   -4.92897
       H     3.12125  -14.85914   -4.19073
       O     2.95422  -15.57836   -4.80897
      H1     2.67484  -15.10224   -5.58848
       H     1.51188  -15.46071  -15.44983
       O     1.63893  -16.38935  -15.18855
      H1     2.51316  -16.39417  -14.77685
       H     2.34296  -18.61081  -11.51772
       O     3.24204  -18.95955  -11.70486
      H1     3.84377  -18.34890  -11.30921
       H     9.79407  -19.47489   -4.97096
       O     9.56557  -18.55947   -4.71029
      H1     8.69895  -18.49554   -5.16214
       H     0.23138  -20.06762  -11.94836
       O     0.29010  -19.26702  -11.38409
      H1    -0.25355  -18.65493  -11.94904
       H     5.76990  -14.57231  -14.49009
       O     5.32548  -14.40968  -15.33719
      H1     5.29955  -13.42385  -15.13032
       H     1.31727  -13.20905  -14.97734
       O     2.22377  -13.55855  -14.79235
      H1     2.77134  -12.85843  -15.28424
       H     1.00345  -15.53038   -2.05432
       O     0.42216  -14.86352   -1.65653
      H1     0.03225  -15.35856   -0.91472
       H    -4.13121  -19.40845   -5.80842
       O    -4.39187  -19.58816   -6.70201
      H1    -5.15293  -19.03433   -6.73073
       H     0.78720  -12.88332  -12.90014
       O     0.73179  -13.62849  -12.29192
      H1     0.42864  -13.16918  -11.48906
       H    -1.29894  -15.14954   -6.15867
       O    -1.17111  -14.84649   -7.07276
      H1    -1.88047  -14.21474   -7.05786
       H     4.07124  -10.74594  -10.38369
       O     3.43335  -10.78794   -9.60293
      H1     3.52410  -11.74139   -9.33166
       H    -1.10647  -18.09395  -15.39439
       O    -1.89154  -18.65917  -15.35216
      H1    -1.98470  -18.62644  -14.35393
       H    -4.26095  -15.71336   -8.21148
       O    -4.80535  -14.96768   -8.53284
      H1    -4.68536  -14.98105   -9.49651
       H     5.38447  -16.59312   -6.57667
       O     5.69024  -15.84447   -5.96622
      H1     4.81326  -15.62130   -5.64118
       H     6.60993  -12.96004  -10.69107
       O     6.03025  -13.66332  -10.42514
      H1     6.38938  -13.81377   -9.49042
       H    -0.25080  -10.58013  -13.28055
       O     0.64592  -10.90015  -13.02625
      H1     0.64704  -10.55212  -12.08688
       H    -3.19837  -17.99348   -7.52283
       O    -3.02545  -17.07717   -7.81940
      H1    -2.09521  -17.09169   -7.93568
       H    -1.37696  -18.18725   -2.98255
       O    -0.71009  -18.75998   -2.61348
      H1    -0.42074  -19.27238   -3.40616
       H     3.32839  -19.66209   -3.09604
       O     3.79584  -19.42881   -3.90346
      H1     4.23387  -18.61081   -3.59951
       H     4.62295  -11.17610  -12.34795
       O     4.98621  -10.38210  -11.87681
      H1     5.92495  -10.58920  -11.79066
       H    -3.75654  -19.72109  -12.95167
       O    -3.43814  -18.80569  -12.79076
      H1    -3.81590  -18.61535  -11.91545

