180
frame 8 | Written by MDAnalysis XYZWriter (release 2.4.3)
       H   -18.04379    1.93671   -5.66835
       O   -17.78323    2.56045   -6.38308
      H1   -17.03225    2.11857   -6.83251
       H   -18.15818   -0.04459   -9.24699
       O   -17.35194    0.35841   -9.61200
      H1   -16.78069    0.58911   -8.89128
       H   -13.07595    2.25458   -6.60837
       O   -12.35006    1.85838   -6.04449
      H1   -11.49894    2.08850   -6.33563
       H   -11.42183   -1.65025  -10.05357
       O   -10.95565   -0.83225  -10.22192
      H1   -10.87296   -0.66747  -11.15666
       H   -16.55895   -4.88398   -1.63978
       O   -16.84118   -4.07943   -2.11546
      H1   -17.20596   -4.34093   -2.90685
       H   -10.25624    4.27798   -6.78830
       O   -10.18742    4.49826   -7.73619
      H1    -9.44523    3.97970   -8.06612
       H   -17.94523   -0.16012  -14.42271
       O   -17.96091    0.15379  -13.48009
      H1   -17.07743   -0.04068  -13.11840
       H   -10.69375    4.32686   -4.23483
       O    -9.89989    4.56878   -4.70983
      H1    -9.96057    5.51750   -4.77845
       H   -15.84431    5.52257   -2.76793
       O   -14.88272    5.50990   -2.64024
      H1   -14.55823    6.40717   -2.79273
       H   -16.76542   -5.53268   -7.23230
       O   -17.13095   -6.26346   -6.68527
      H1   -17.41471   -5.69668   -5.91972
       H   -16.35379   -0.55308  -10.65278
       O   -15.68662   -0.91777  -11.30598
      H1   -16.05766   -1.63970  -11.88341
       H   -18.09186    3.19157   -9.72633
       O   -17.31501    2.89342  -10.28690
      H1   -17.18557    1.97830  -10.07048
       H    -8.03109   -0.57533   -7.77647
       O    -8.01868   -0.83391   -8.73906
      H1    -8.95671   -1.05640   -8.94141
       H    -7.38510    3.03118   -6.23759
       O    -7.50210    3.89268   -5.89294
      H1    -8.40559    3.94892   -5.50349
       H   -13.29323   -5.49588  -12.15037
       O   -13.14972   -5.39241  -11.21242
      H1   -12.62096   -4.55419  -11.16404
       H   -13.61626   -4.97353   -4.71972
       O   -14.54996   -4.97572   -4.96756
      H1   -15.15029   -5.08438   -4.22939
       H   -12.62394   -3.66474   -0.98120
       O   -12.05702   -3.13521   -1.50207
      H1   -11.40399   -2.82607   -0.87903
       H   -19.49017   -3.78593  -10.89158
       O   -18.59336   -3.53135  -10.98674
      H1   -18.04540   -4.01861  -10.30990
       H   -10.93783   -7.76763   -5.32525
       O   -11.21629   -7.51258   -4.40114
      H1   -11.63666   -6.62637   -4.40065
       H   -14.81182   -2.27706   -8.50681
       O   -14.82796   -2.83638   -9.25752
      H1   -15.06844   -2.40196  -10.08661
       H    -9.66899   -5.70445   -4.40148
       O    -8.75004   -5.37551   -4.38975
      H1    -8.46534   -5.48339   -5.27926
       H   -15.45045   -3.62865   -6.06485
       O   -15.53963   -2.77892   -6.52445
      H1   -14.99214   -2.33546   -5.90503
       H   -14.81566    0.90461  -11.38260
       O   -14.54012    1.77867  -11.12247
      H1   -15.24995    2.18226  -10.67923
       H   -16.12292   -5.66821   -9.81660
       O   -16.54690   -4.96739   -9.31757
      H1   -15.82912   -4.29674   -9.23876
       H   -12.82738    1.99855  -10.19917
       O   -12.10445    1.83027   -9.62485
      H1   -11.78488    0.91650   -9.85670
       H   -13.84556   -2.40817    1.94052
       O   -13.20472   -1.91298    1.35062
      H1   -13.59710   -1.85974    0.48272
       H   -13.26355   -8.37401   -9.61987
       O   -13.89889   -7.64268   -9.40458
      H1   -13.62315   -6.92559   -9.99089
       H   -14.21328   -1.66780  -12.40623
       O   -13.28558   -1.92930  -12.54043
      H1   -12.87848   -1.83147  -11.66957
       H   -11.55903    4.95670  -11.04073
       O   -11.37469    4.55127  -11.89622
      H1   -12.18612    4.24022  -12.28626
       H   -18.92332   -4.81260   -4.30017
       O   -18.00493   -4.47889   -4.47395
      H1   -18.17562   -3.60753   -4.84943
       H   -16.42077    3.01430   -4.88412
       O   -16.00932    2.44071   -4.23141
      H1   -15.40497    3.02909   -3.79214
       H   -14.25705   -8.07401   -7.19946
       O   -15.00620   -8.05349   -6.60250
      H1   -15.53506   -7.28143   -6.73414
       H   -18.83608   -2.43826   -6.13038
       O   -18.24021   -1.96440   -5.64043
      H1   -17.42547   -1.93169   -6.12949
       H   -13.51013    6.91655   -7.18555
       O   -13.95699    6.36860   -7.86239
      H1   -13.21309    6.04995   -8.44532
       H   -13.13407    3.11498   -8.32530
       O   -13.83800    3.45156   -7.73514
      H1   -13.83478    4.42352   -7.82801
       H   -13.88719   -0.37312   -4.34903
       O   -14.70069   -0.42265   -4.82065
      H1   -14.97616    0.52874   -4.78630
       H    -8.79280    2.93369  -10.02698
       O    -8.49599    2.98160   -9.10818
      H1    -8.81226    2.18538   -8.66182
       H   -11.66499    6.88567   -9.50071
       O   -11.86630    5.92755   -9.50072
      H1   -11.36969    5.49845   -8.78441
       H   -14.90176   -8.83767   -4.31407
       O   -14.46670   -8.10556   -3.88832
      H1   -14.39017   -7.48229   -4.59064
       H    -9.96649   -6.04795   -9.11557
       O   -10.81306   -6.30355   -8.74021
      H1   -10.53655   -7.05792   -8.12696
       H   -15.14614    2.31510   -8.00760
       O   -15.53363    1.46466   -7.96663
      H1   -14.80050    0.83620   -7.79946
       H    -8.92766    1.06548   -2.96502
       O    -7.97966    1.09874   -2.95258
      H1    -7.74418    0.20177   -2.74445
       H   -10.50781    0.68416   -1.41576
       O   -10.91340    0.90868   -2.25335
      H1   -11.50738    1.66199   -2.05564
       H   -11.53846   -4.35426   -4.67742
       O   -11.92877   -4.73607   -3.90887
      H1   -11.80346   -4.11761   -3.21290
       H   -12.76028    0.03077   -7.47580
       O   -13.65300   -0.34403   -7.57386
      H1   -13.97412   -0.44479   -6.68122
       H   -14.25213    4.24983  -13.14741
       O   -13.60502    3.55345  -13.25841
      H1   -13.96788    2.78499  -12.74483
       H   -10.61834   -1.16200   -4.48661
       O   -10.07913   -1.03497   -5.27105
      H1    -9.65268   -1.87348   -5.56734
       H   -11.45501   -3.68397   -8.58920
       O   -11.91429   -3.37201   -9.32119
      H1   -12.86467   -3.26341   -9.13655
       H    -6.42708   -0.97473   -4.13366
       O    -6.93916   -1.59532   -3.57351
      H1    -7.66447   -1.73838   -4.20422
       H   -18.09079   -2.72018   -2.35972
       O   -18.94143   -2.27423   -2.47149
      H1   -18.84601   -1.57141   -3.16269
       H    -7.39505   -3.22815   -6.26262
       O    -8.12712   -2.64413   -6.54832
      H1    -7.82310   -2.19734   -7.28902
       H   -18.59086   -0.20675   -4.78500
       O   -18.77734    0.70708   -4.50381
      H1   -19.74297    0.73372   -4.44435
       H   -12.66166    3.00256   -4.80282
       O   -12.51138    3.61724   -4.06588
      H1   -13.29895    4.21118   -4.10521
       H   -15.68863   -0.45306   -3.41482
       O   -16.25852   -0.57359   -2.62429
      H1   -16.51984    0.29336   -2.28652
       H   -13.59248   -7.36723   -2.23763
       O   -13.22903   -6.60726   -1.88634
      H1   -12.87030   -6.10698   -2.67685
       H   -12.00870   -0.34993   -2.95806
       O   -12.52355   -1.06850   -3.31933
      H1   -12.47664   -1.76991   -2.59432
       H   -17.41718    2.17026   -2.08715
       O   -18.10831    1.63342   -1.67609
      H1   -18.60582    1.31785   -2.45711
       H    -9.94188    0.74886   -6.18806
       O    -9.48773    1.27009   -6.90367
      H1    -8.54040    1.37085   -6.59657
       H   -10.75394   -5.06805   -7.44322
       O   -10.68746   -4.32073   -6.81997
      H1    -9.79349   -3.92769   -6.89549
       H   -15.57817   -2.53415   -0.60951
       O   -14.83775   -1.89236   -0.84770
      H1   -15.22776   -1.32344   -1.54488

