180
frame 56 | Written by MDAnalysis XYZWriter (release 2.4.3)
       H    14.07899  -16.82071   -5.10980
       O    13.97870  -17.63105   -4.54077
      H1    14.61164  -18.23853   -4.96778
       H    15.45828  -12.13017  -12.07713
       O    14.61261  -12.02177  -11.60671
      H1    14.02866  -12.72338  -11.91221
       H    14.79870  -16.14450   -6.34714
       O    14.49755  -15.32135   -5.89908
      H1    15.30207  -14.79170   -5.65532
       H    18.62531   -7.49622  -13.18910
       O    18.27979   -8.39348  -13.40051
      H1    18.65085   -8.95015  -12.72085
       H    10.41494  -13.84793   -7.66984
       O    10.97857  -14.63320   -7.77522
      H1    11.17221  -14.81917   -6.81474
       H    13.68101  -13.20470   -1.39979
       O    12.82080  -13.05384   -0.97250
      H1    12.56952  -12.24108   -1.48759
       H    18.29889  -14.67305   -2.12399
       O    18.00919  -13.86841   -2.63247
      H1    18.01918  -14.20082   -3.53089
       H    15.05316   -9.08163  -13.01178
       O    15.42221   -8.20151  -13.10806
      H1    16.39025   -8.30284  -13.28961
       H    14.37044  -16.94244  -11.79579
       O    15.28646  -17.09590  -11.61480
      H1    15.71291  -16.89645  -12.45928
       H    14.00013   -9.02265   -7.61785
       O    14.16609   -9.89412   -7.00322
      H1    15.12533  -10.12821   -7.10159
       H    12.74178  -17.01385  -12.92091
       O    12.64008  -16.61397  -12.04719
      H1    12.43765  -15.72157  -12.32687
       H    14.01541  -15.05552  -15.43945
       O    14.47677  -14.26036  -15.68959
      H1    15.06426  -14.57396  -16.40062
       H     9.84749  -14.61270   -4.48540
       O    10.79364  -14.63628   -4.67961
      H1    11.08396  -13.70296   -4.69570
       H    19.05651  -14.90860  -15.41748
       O    18.83174  -15.56087  -16.10288
      H1    18.28408  -15.08018  -16.77803
       H    16.13409  -11.23984   -4.59189
       O    15.62401  -12.03429   -4.77662
      H1    14.68257  -11.78543   -4.79354
       H    18.62461  -10.84401  -16.53541
       O    18.94477  -10.87230  -15.62630
      H1    19.13781   -9.92616  -15.56515
       H    16.69068   -9.49243   -3.30363
       O    17.35771  -10.01757   -3.73180
      H1    17.96717   -9.38690   -4.09143
       H     9.01275  -16.36293   -7.22613
       O     8.06962  -16.40912   -7.48903
      H1     7.93064  -17.37657   -7.62550
       H    16.81272  -17.27639   -6.31164
       O    15.96532  -17.55311   -6.78891
      H1    16.09057  -17.10421   -7.63444
       H    12.57604  -14.20835   -8.18857
       O    13.58437  -14.24372   -8.17999
      H1    13.84535  -14.72418   -7.33273
       H    18.41654  -14.51932   -5.94409
       O    17.49250  -14.59431   -5.50552
      H1    17.53972  -15.52667   -5.30338
       H    11.71225  -14.30492   -1.76976
       O    11.15782  -15.08319   -2.01697
      H1    11.05015  -14.83908   -3.01524
       H    12.20383  -13.50998  -12.11538
       O    12.65834  -13.60393  -12.99366
      H1    11.90097  -13.35462  -13.58888
       H    16.18970  -11.41810  -14.64424
       O    16.79368  -11.38622  -13.79754
      H1    17.67140  -11.26713  -14.21146
       H    16.39247  -15.88431  -17.08933
       O    16.46757  -15.06848  -17.61947
      H1    15.84084  -15.32369  -18.36080
       H    11.03262  -18.08156   -5.51349
       O    11.65986  -18.42780   -6.22640
      H1    12.52519  -18.38158   -5.79788
       H    19.13396  -17.52715  -10.21738
       O    19.66503  -17.11790  -10.95373
      H1    19.14381  -17.59841  -11.63244
       H    12.87696  -10.82655   -7.93850
       O    12.28223  -11.43329   -8.42820
      H1    12.95510  -11.78714   -9.02992
       H    17.57467  -10.60650   -6.99665
       O    16.86254  -11.10468   -7.37326
      H1    16.45099  -11.59779   -6.64945
       H    15.73778  -16.31652  -10.08521
       O    15.73096  -16.02730   -9.16076
      H1    15.09265  -15.27826   -9.21495
       H    10.66153  -17.85951  -15.70984
       O    11.32477  -18.45973  -15.97570
      H1    10.86051  -19.05479  -16.56050
       H    13.58067  -16.92172   -2.94001
       O    13.75993  -16.87391   -1.98474
      H1    13.07671  -16.24010   -1.63134
       H    15.41309  -14.16153  -14.25843
       O    15.96896  -13.98510  -13.45657
      H1    16.16641  -13.02769  -13.53537
       H    12.51184  -12.14544   -6.08747
       O    12.67860  -12.60011   -5.21455
      H1    13.22936  -13.35034   -5.44602
       H    17.72205  -14.77980   -9.32920
       O    18.52265  -15.34321   -9.30088
      H1    18.50003  -15.68146  -10.18327
       H     9.30593  -17.11935   -3.54079
       O     9.49338  -17.35978   -4.44144
      H1     9.59345  -18.31895   -4.45582
       H    18.77645  -19.38309   -2.34693
       O    18.36746  -18.72122   -2.88819
      H1    17.53316  -18.49369   -2.40590
       H    13.76826  -10.92584  -14.21164
       O    13.72942  -10.30274  -13.43163
      H1    14.01363  -10.89414  -12.77647
       H    15.22028  -18.15883  -16.72529
       O    14.74655  -17.32190  -16.82759
      H1    13.98722  -17.51337  -17.39117
       H    19.25563  -13.17332  -13.43045
       O    19.39102  -13.40732  -14.35708
      H1    19.34869  -12.53842  -14.77741
       H    17.35286  -19.02257  -12.82000
       O    18.27744  -18.80436  -12.68905
      H1    18.69356  -19.42789  -13.39157
       H    16.21114  -19.30745    0.69508
       O    16.63068  -19.29372   -0.19714
      H1    16.47357  -18.38785   -0.47535
       H    19.47629   -9.56245   -5.80588
       O    19.14495   -9.88142   -6.63713
      H1    19.63255  -10.76655   -6.68241
       H    10.93923  -14.51817  -10.48727
       O    11.27128  -13.64786  -10.78367
      H1    10.58124  -13.21017  -11.36455
       H    11.26534  -17.60485  -11.30158
       O    10.89089  -18.05997  -10.53782
      H1    11.57841  -18.05178   -9.86867
       H     8.89635  -16.05827  -13.59947
       O     9.15385  -15.32039  -12.91947
      H1     8.86381  -15.84789  -12.18303
       H    13.80051  -16.93081  -15.03911
       O    12.98547  -16.43324  -14.72857
      H1    12.31352  -16.77243  -15.33007
       H    13.77031  -18.02738   -8.63738
       O    13.04647  -17.44440   -8.42643
      H1    12.45965  -17.91709   -7.81381
       H    17.12379  -18.46877   -9.16326
       O    18.00838  -18.11417   -9.00861
      H1    17.85715  -17.16002   -8.94899
       H    18.13195  -12.96886  -10.18900
       O    19.06126  -12.89428  -10.53354
      H1    19.42956  -13.79488  -10.35465
       H    18.75518  -18.01895   -6.06881
       O    18.43323  -17.23297   -5.60848
      H1    18.98746  -17.12246   -4.80245
       H    16.57302  -12.26323   -8.97317
       O    16.53869  -12.96299   -9.63343
      H1    15.80260  -12.65165  -10.20616
       H    14.23673   -9.68856   -5.43002
       O    14.31780   -9.23061   -4.54290
      H1    14.06963   -8.30753   -4.68851
       H     9.31912  -17.28853  -10.55554
       O     8.49887  -16.77163  -10.76744
      H1     8.31904  -16.33271   -9.89600
       H    14.02570  -12.52385  -15.93081
       O    13.85457  -11.57501  -15.79880
      H1    12.91023  -11.59283  -16.00175
       H    16.50687  -13.15573   -2.09015
       O    15.63062  -12.68136   -2.17467
      H1    15.75444  -12.40449   -3.08018
       H    16.77505  -15.77762  -13.67800
       O    16.68922  -16.72075  -14.02852
      H1    17.57799  -17.05098  -14.27277
       H    16.52711  -16.00999   -0.88971
       O    16.53538  -16.79583   -1.50302
      H1    15.65317  -16.77592   -1.85133
       H    18.91964   -9.45556   -8.84302
       O    19.66154   -9.06075   -9.34410
      H1    19.70539   -9.52693  -10.18133
       H     9.04667  -13.10396   -8.73140
       O     9.28289  -12.66026   -7.87110
      H1     9.93430  -12.00613   -8.16972

