180
frame 6 | Written by MDAnalysis XYZWriter (release 2.4.3)
       H   -12.22751    7.18348   14.28428
       O   -11.33869    7.09404   14.68593
      H1   -11.57579    7.01616   15.61538
       H   -15.02110    3.51078   18.61898
       O   -14.86152    2.57474   18.54337
      H1   -15.21651    2.22097   19.35527
       H   -16.21658    0.74759   11.71635
       O   -16.80869    0.10341   12.19218
      H1   -17.25628    0.71401   12.84576
       H   -12.80907   -2.23198   15.94308
       O   -12.70179   -1.26375   15.98425
      H1   -12.16415   -1.14738   15.14604
       H   -17.26365    3.42710   16.70722
       O   -16.92618    2.52051   16.83202
      H1   -16.03978    2.64516   17.17179
       H   -11.48213    4.14407   15.24895
       O   -11.11509    4.26592   14.38861
      H1   -10.99371    5.28946   14.42294
       H    -9.81950    4.18276   17.50146
       O   -10.72744    3.89918   17.30797
      H1   -10.80476    3.17419   17.97090
       H   -10.16724    0.86400   16.22795
       O   -10.68802    1.51847   15.76600
      H1   -10.51952    2.22164   16.35361
       H   -10.65667   -1.31610   11.01636
       O   -10.83180   -1.23702   10.05462
      H1   -11.67930   -0.82293   10.00390
       H   -13.49325   -4.58120   15.55601
       O   -13.14509   -4.14027   16.32842
      H1   -13.81866   -4.29890   17.00261
       H   -14.15785    4.18323   16.41352
       O   -14.43651    5.13465   16.39111
      H1   -13.80488    5.46593   17.12647
       H   -18.86410    5.37970   17.86083
       O   -18.13162    5.68137   17.30932
      H1   -17.92722    6.54133   17.68880
       H    -6.84568   -6.02664   16.82666
       O    -6.59775   -5.63489   17.70625
      H1    -7.49155   -5.35953   17.96771
       H   -10.87613   -2.47636   19.71824
       O   -10.56357   -2.49010   18.79337
      H1   -11.44015   -2.65767   18.34348
       H    -9.62348    3.11708   14.56852
       O    -8.71406    3.00719   14.24018
      H1    -8.53147    2.20895   14.72824
       H   -13.08477    9.05996   18.72183
       O   -12.28540    8.49939   18.49926
      H1   -12.58010    7.59895   18.71515
       H   -12.94191    0.15969   17.65419
       O   -13.00746    0.62349   18.57818
      H1   -13.61517    1.36878   18.48442
       H   -11.58463    0.53311   13.21617
       O   -11.61805   -0.42196   13.46253
      H1   -10.69719   -0.67702   13.34036
       H   -18.32351    2.60858   14.09208
       O   -18.06648    1.65913   14.27660
      H1   -17.61043    1.76451   15.09940
       H    -9.38133   -6.73897   16.21741
       O   -10.23269   -6.85146   16.60485
      H1   -10.30816   -7.80847   16.77671
       H   -10.09260   -3.53013   15.64371
       O   -10.13837   -2.70537   15.12510
      H1    -9.72712   -2.03062   15.66701
       H   -18.44700    2.05773   17.46922
       O   -19.26454    1.69087   17.83801
      H1   -19.24272    0.77125   17.50565
       H   -17.35783    4.67867   14.51295
       O   -18.27887    4.46729   14.89147
      H1   -18.47006    5.17619   15.50216
       H   -15.90890   -4.09899   16.52734
       O   -16.15213   -4.15451   15.56231
      H1   -16.11696   -3.22521   15.36384
       H   -14.81481   -1.39350   18.09136
       O   -15.09764   -1.31786   17.13954
      H1   -14.26292   -1.40614   16.66637
       H    -9.62737    2.56457   12.40811
       O    -9.63528    2.14342   11.51299
      H1   -10.55501    1.84816   11.41516
       H   -15.49836   -4.92920   19.02020
       O   -15.17437   -4.97834   18.11002
      H1   -14.72586   -5.87792   18.16302
       H   -14.27627   -7.56268   19.17306
       O   -13.69809   -7.26737   18.40602
      H1   -13.56305   -8.01572   17.76184
       H    -6.01548   -1.71858   14.28233
       O    -6.70430   -1.71218   14.93082
      H1    -6.24758   -2.09467   15.68358
       H   -15.11087    3.28919   11.12604
       O   -15.65142    2.90288   11.83996
      H1   -15.47857    3.58446   12.49248
       H   -11.55326   -7.74434   13.76102
       O   -11.91176   -7.16284   14.42716
      H1   -11.23562   -7.04103   15.06447
       H    -8.14372    0.29620   16.39101
       O    -8.72044   -0.48972   16.39120
      H1    -8.10314   -1.10442   15.84937
       H   -15.44902   -2.61393   13.33751
       O   -14.84762   -3.08835   12.82188
      H1   -14.58141   -3.87394   13.37090
       H    -6.37506    4.70676   14.67738
       O    -7.07280    5.09454   15.28458
      H1    -7.75852    4.43448   15.19874
       H    -8.88866   -2.87811   11.75560
       O    -9.06430   -3.72746   11.31719
      H1    -8.13904   -3.96766   11.13738
       H    -8.29363    3.23903   19.63310
       O    -8.14311    3.27492   18.64926
      H1    -7.61963    4.07783   18.65420
       H   -14.93069    5.63769   13.07019
       O   -15.41100    5.10751   13.73871
      H1   -15.08679    5.47445   14.55272
       H   -13.24066   -6.16302   14.45629
       O   -14.00150   -5.52791   14.28834
      H1   -14.73969   -6.20821   14.07552
       H   -12.67689    5.54368   19.19683
       O   -12.44287    5.84803   18.29607
      H1   -11.65038    5.34847   18.05462
       H    -9.13994   -1.02759   19.58306
       O    -8.19687   -0.83750   19.68772
      H1    -7.68537   -1.53969   19.26119
       H   -11.28274   -3.73500   11.00414
       O   -11.99551   -4.21621   11.46118
      H1   -11.70521   -4.10330   12.36975
       H   -16.16710   -0.79238   13.81444
       O   -16.22290   -1.47711   14.50048
      H1   -15.62985   -1.18506   15.20912
       H   -13.47798   -0.97225    9.88297
       O   -13.28715   -0.69197    8.98783
      H1   -13.29899   -1.50566    8.49745
       H    -9.27227   -1.77567   13.50579
       O    -9.18144   -1.33349   12.63724
      H1    -8.47022   -0.68813   12.78736
       H    -6.94248    0.29879   18.49581
       O    -6.39553    1.05871   18.21218
      H1    -7.00183    1.78408   18.08111
       H   -18.29890   -1.39628   16.39426
       O   -18.25289   -0.72752   17.07966
      H1   -17.29518   -0.67216   17.09854
       H   -14.09144    0.53350   12.89524
       O   -14.60716    1.04822   13.57638
      H1   -15.27300    1.54843   13.04259
       H   -13.21833    2.03456   12.90797
       O   -12.28456    2.05447   12.58225
      H1   -11.86285    2.81588   12.97357
       H   -14.99957   -4.38096   11.59433
       O   -14.98510   -5.01513   10.81764
      H1   -14.14553   -4.61675   10.35997
       H    -6.12037    1.60515   16.04006
       O    -6.51422    1.33708   15.23203
      H1    -6.40157    0.42210   15.19741
       H   -11.62056    1.51002   18.93905
       O   -10.95113    2.21400   19.26207
      H1   -11.06521    2.13246   20.17994
       H   -12.68684   -0.66743   12.21725
       O   -13.46459   -0.83376   11.58307
      H1   -13.66355   -1.72888   11.88097
       H   -15.85828   -6.01626   15.62467
       O   -16.17906   -6.80033   15.14607
      H1   -16.97792   -6.47412   14.69351
       H   -16.47206    4.53574   20.00474
       O   -16.00821    5.06982   19.36809
      H1   -16.77225    5.12044   18.76477
       H    -9.20586   -4.68741   12.58983
       O    -9.47380   -5.22470   13.42255
      H1    -9.63792   -6.06274   12.94013
       H    -9.53739   -4.04551   18.77027
       O    -8.97693   -4.82615   18.75225
      H1    -9.53974   -5.50063   18.37090
       H   -12.95592   -5.43521   18.95158
       O   -12.60347   -4.93071   19.77011
      H1   -12.87167   -4.02469   19.68770
       H    -8.51515    6.75738   17.88700
       O    -9.45937    6.78063   17.84325
      H1    -9.66321    7.60088   17.42470
       H   -19.22296   -3.53781   16.19992
       O   -18.93383   -3.06179   15.33260
      H1   -18.02998   -3.42181   15.28914
       H   -13.71778    1.99779   14.74111
       O   -13.32999    2.47622   15.49041
      H1   -12.47639    2.11939   15.68638

