180
frame 11 | Written by MDAnalysis XYZWriter (release 2.4.3)
       H     2.88500    3.29520   -9.68674
       O     2.53746    4.18326   -9.94654
      H1     1.61447    4.05062   -9.80780
       H    -2.06838    0.66858  -12.47666
       O    -2.70118    0.00768  -12.09943
      H1    -3.55994    0.46962  -12.17577
       H    -1.94855   11.27412  -10.30869
       O    -2.04483   11.01700   -9.38582
      H1    -1.24862   11.07264   -8.92801
       H    -3.70091   -0.09351  -16.76549
       O    -3.99404   -0.71929  -16.11113
      H1    -3.11777   -1.15896  -16.00476
       H    -4.51847   13.61324  -15.32711
       O    -3.57436   13.45981  -15.29994
      H1    -3.67321   12.56433  -14.85381
       H    -4.17689    7.08793  -19.53903
       O    -4.25755    6.15238  -19.43811
      H1    -3.83303    6.07394  -18.54162
       H    -3.47933    3.51376  -12.65341
       O    -3.48841    3.54414  -13.64087
      H1    -4.39025    3.81146  -13.91457
       H    -3.22072    6.26890  -13.57561
       O    -2.92585    6.56428  -12.69544
      H1    -3.52735    7.27698  -12.51793
       H    -0.35239    8.07821   -8.40678
       O    -0.84633    7.42960   -7.86396
      H1    -0.91248    7.86502   -6.99672
       H    -6.58773    1.12324  -14.57280
       O    -7.23348    1.49082  -15.17025
      H1    -7.03155    0.96803  -15.95425
       H    -6.51753    3.19336  -14.46113
       O    -6.10700    3.96811  -14.14023
      H1    -6.53515    4.06782  -13.25555
       H    -1.34326    4.32596  -10.11411
       O    -0.39950    4.30982  -10.39098
      H1    -0.53282    4.61404  -11.27997
       H    -5.28364    5.83408  -14.63799
       O    -4.43704    6.19509  -15.03105
      H1    -4.74080    7.10652  -15.09066
       H     1.58923    9.11140  -10.20886
       O     0.69079    9.36276   -9.86269
      H1     0.16205    8.98368  -10.58534
       H   -10.82888    7.29221  -15.86932
       O   -10.17435    7.71817  -15.24709
      H1   -10.21751    8.70051  -15.38338
       H    -2.27995    2.24184   -6.88590
       O    -3.06248    2.51555   -7.35836
      H1    -2.76904    2.61353   -8.27187
       H     1.67505    0.77863  -10.36848
       O     2.23937    1.15658  -11.01674
      H1     1.60744    1.49863  -11.70911
       H    -6.75919    8.86312  -11.02805
       O    -7.42101    9.31607  -10.40491
      H1    -6.89845    9.48644   -9.57283
       H    -1.89077    1.52552  -10.80669
       O    -1.32523    1.73978  -10.01440
      H1    -0.88416    2.55683  -10.30217
       H    -7.80924    8.10161   -7.00528
       O    -6.97090    8.13568   -7.51866
      H1    -6.86612    7.24046   -7.82375
       H    -7.17571   11.06751  -11.31513
       O    -7.17277   11.78473  -11.94705
      H1    -6.45776   12.37920  -11.61036
       H    -4.95288    8.75424  -16.68455
       O    -5.16299    8.80414  -15.73074
      H1    -5.58728    9.65667  -15.59018
       H    -0.04036    3.32424  -18.52839
       O     0.34724    3.55791  -17.68595
      H1    -0.38690    3.38632  -17.03938
       H    -8.14721    7.51087  -14.84773
       O    -7.48007    6.95832  -14.43382
      H1    -8.02240    6.25859  -14.04443
       H    -8.86244   10.82673  -14.46464
       O    -9.77979   10.52134  -14.35491
      H1   -10.17998   11.25301  -14.84811
       H     0.76865   10.99474  -10.78436
       O     1.02641   11.58006  -11.52253
      H1     0.48169   12.34708  -11.38686
       H     1.52845    1.63986  -14.24507
       O     1.30397    1.02557  -13.58493
      H1     2.15385    0.54699  -13.54477
       H    -9.13534    4.03722  -13.33336
       O    -9.02622    4.96746  -13.23036
      H1    -9.86838    5.25188  -13.73132
       H     4.01159    5.53341  -16.19029
       O     3.15174    5.78508  -15.79363
      H1     3.55165    6.23441  -15.02782
       H    -5.75316   -0.40267  -13.76758
       O    -5.30876    0.42636  -13.61087
      H1    -4.63629    0.47928  -14.30953
       H     1.77206    7.96037  -17.65888
       O     1.41051    7.08125  -17.57034
      H1     1.97854    6.60451  -16.91161
       H    -7.05324    6.36162  -18.06934
       O    -7.35595    6.94024  -17.35343
      H1    -6.91975    6.47848  -16.69536
       H     1.38938    3.03853  -16.01777
       O     1.84954    3.38796  -15.23384
      H1     1.96152    4.32620  -15.43083
       H    -6.28641    7.76391  -13.26826
       O    -5.87562    7.95396  -12.37109
      H1    -5.19984    8.60682  -12.49014
       H     3.58255    7.54388  -10.04823
       O     3.12030    8.36482  -10.32727
      H1     3.28902    8.28608  -11.30970
       H    -5.87097    5.25985   -8.16533
       O    -6.73110    5.51731   -8.61480
      H1    -6.50575    5.64570   -9.52461
       H    -9.06169    1.73099  -12.24363
       O    -8.42520    2.27641  -12.73340
      H1    -8.40735    1.74168  -13.50425
       H    -0.38945   10.41331  -13.73249
       O    -1.14976    9.86513  -13.52918
      H1    -0.79120    9.16937  -12.91409
       H    -3.48584    9.71221   -9.16719
       O    -4.32043    9.21935   -9.08193
      H1    -4.88538    9.88927   -8.65034
       H    -6.85656    3.77623  -17.59664
       O    -6.06643    4.35273  -17.65717
      H1    -6.14580    4.63613  -18.59929
       H    -7.73027    5.26933  -11.83161
       O    -6.84867    5.37721  -11.39542
      H1    -6.50730    6.18958  -11.82606
       H    -6.82911   10.90061  -13.61884
       O    -6.74277   10.74412  -14.58680
      H1    -6.56605   11.65421  -14.79312
       H    -2.66093   10.48065  -14.51524
       O    -3.61818   10.76407  -14.59334
      H1    -3.82028    9.98611  -15.15347
       H    -7.21558    8.95608  -17.62879
       O    -7.30887    9.87787  -17.91578
      H1    -8.26579   10.06562  -17.83982
       H     0.35911    6.97541  -15.74333
       O    -0.07677    6.46073  -15.03031
      H1    -0.08324    7.07379  -14.23735
       H    -8.48185    2.51734  -16.43126
       O    -8.52731    2.91590  -17.30922
      H1    -8.86744    3.81283  -17.13674
       H    -6.87992    3.80043   -8.74633
       O    -7.14242    2.88118   -8.66593
      H1    -8.03753    2.94625   -9.05128
       H    -3.63711    9.96334  -12.75017
       O    -3.86351    9.41779  -11.99693
      H1    -4.16702   10.03915  -11.32370
       H    -2.98861    7.12373   -7.81908
       O    -3.78291    6.96530   -7.29878
      H1    -4.34578    7.63111   -7.75301
       H    -3.70940    4.96947  -11.35688
       O    -3.35913    4.21562  -10.91054
      H1    -4.05021    3.62003  -10.76781
       H    -4.12179    3.91406   -6.97326
       O    -4.85023    4.60293   -6.76691
      H1    -4.45054    5.49725   -6.75278
       H    -9.72105    5.65337  -18.24464
       O    -9.60265    5.46925  -17.33446
      H1    -8.89501    6.11757  -17.14192
       H    -0.19034    6.85977  -12.00027
       O    -0.50502    7.71407  -12.18290
      H1    -1.43037    7.50934  -12.51253
       H    -4.88937    9.20796  -19.32841
       O    -4.25982    8.88181  -18.66574
      H1    -3.41978    9.28127  -18.94582
       H     0.27328    5.31340  -13.85892
       O     0.15296    4.76983  -13.08661
      H1    -0.14461    3.89923  -13.40384
       H    -1.93729    3.82311  -15.67390
       O    -1.59552    2.89748  -15.84180
      H1    -2.37789    2.51775  -16.20687
       H    -5.56972    1.67782  -11.62794
       O    -5.05169    1.61448  -10.82208
      H1    -5.73276    1.21545  -10.20545
       H    -1.54864    2.44499  -13.66032
       O    -1.14582    2.05491  -12.90685
      H1    -0.36942    1.66614  -13.33688
       H    -3.21050    6.02066  -16.33792
       O    -2.65293    5.78245  -17.09134
      H1    -1.85694    6.34634  -16.89006
       H    -4.08873    2.88534  -17.11367
       O    -3.79613    2.07985  -17.60940
      H1    -4.60971    1.95731  -18.12325

