180
frame 5 | Written by MDAnalysis XYZWriter (release 2.4.3)
       H    -3.65755    4.25493    5.30810
       O    -3.19523    4.67495    4.52785
      H1    -3.69338    5.50304    4.43463
       H    -0.46740    5.92611    6.83475
       O     0.00925    5.12859    7.11763
      H1     0.98895    5.37971    6.89286
       H    -3.84624    6.21165   10.51792
       O    -3.37766    6.53755    9.72955
      H1    -4.03859    6.94482    9.18433
       H     1.58104    1.44014    7.30676
       O     1.54105    1.40554    8.28259
      H1     1.60052    2.33797    8.56584
       H     8.57987    8.37150    7.35239
       O     9.35581    7.85034    7.15958
      H1     9.70325    7.57188    7.98459
       H    -0.94506   11.35188   11.27249
       O    -0.20420   11.60972   10.71128
      H1     0.36880   10.82952   10.71365
       H     3.96260    5.59821   10.23187
       O     4.89656    5.21403   10.13809
      H1     4.68467    4.74486    9.32815
       H     3.32791   11.48097   12.45655
       O     3.88540   11.68100   11.64037
      H1     3.79008   10.75171   11.29215
       H     4.17138    9.13375   10.14552
       O     3.55964    8.79922   10.75311
      H1     4.14552    8.40135   11.46226
       H    -0.27401    3.88023    9.33107
       O    -1.03349    3.87959    9.93476
      H1    -0.93301    4.73576   10.34004
       H    -0.63796    9.47824    4.99460
       O    -1.48169    9.14420    4.76237
      H1    -1.21047    8.53504    4.10608
       H    -1.46083   11.13310    7.66003
       O    -1.85960   11.36121    8.50887
      H1    -1.16710   11.34912    9.19517
       H     1.39253    4.49193    8.21007
       O     2.06858    4.01152    8.65091
      H1     1.98341    4.35222    9.59470
       H    -3.82764    5.17081    8.15733
       O    -3.73875    5.15028    7.18085
      H1    -2.91756    4.63642    7.18017
       H     4.90679    2.59702    7.78119
       O     4.67111    3.52626    7.90664
      H1     3.74534    3.62274    8.18701
       H     2.85552   14.39528    1.29132
       O     2.65534   13.72942    1.96774
      H1     3.07270   13.95690    2.84450
       H     5.48914    7.24342   12.56041
       O     4.54798    7.45552   12.74210
      H1     4.08647    6.64166   12.48246
       H     1.07346    0.66395    5.44368
       O     1.47051    1.52857    5.65424
      H1     2.43106    1.33583    5.59124
       H     1.81333    6.30792   11.54707
       O     2.09257    5.56601   11.00928
      H1     1.89888    4.84803   11.56267
       H     0.47039   10.19508    1.19322
       O     0.69114    9.68292    2.00017
      H1     0.01171    8.99092    1.92433
       H    -3.43863    8.86437    1.82174
       O    -3.83747    9.75647    1.95910
      H1    -3.45490   10.11979    2.81075
       H     0.07781   12.75493    3.40941
       O     0.00118   12.38081    4.27281
      H1    -0.97888   12.27060    4.19017
       H     6.32519    5.39200    0.63262
       O     6.42742    4.97450    1.55004
      H1     5.48472    4.73067    1.80507
       H     3.92141   11.40904    1.50515
       O     4.50394   11.91859    0.95767
      H1     4.05395   12.79716    0.94808
       H     0.81899   15.40725    6.10809
       O     0.04254   15.03865    5.72140
      H1     0.27296   14.10114    5.73322
       H     0.26381   10.29257    7.33779
       O     0.09194   10.74123    6.50440
      H1     0.69896   11.51909    6.45012
       H    -1.53911    6.54922   10.28513
       O    -0.85727    6.56529   10.95021
      H1    -0.42231    7.40095   10.79311
       H     5.69535   11.05653    9.13974
       O     4.92438   10.42653    8.98242
      H1     4.62799   10.55685    8.09431
       H     7.38441    7.59735    3.19526
       O     6.62445    6.93538    3.49997
      H1     6.60702    6.38319    2.68617
       H     2.25220   13.45622    7.38152
       O     1.69979   13.08912    6.72372
      H1     2.03428   13.26981    5.79990
       H    -1.38107    7.64100    1.58933
       O    -1.10721    7.62361    2.54173
      H1    -1.05268    6.67291    2.70924
       H     3.24329    4.24972    2.28613
       O     3.87891    4.95392    2.40918
      H1     3.81369    4.96371    3.39342
       H    -1.84047    2.29989    7.62535
       O    -1.91109    2.79965    6.81068
      H1    -1.05394    3.25434    6.77878
       H    -2.45162   12.80036    8.86800
       O    -2.68880   13.74540    9.05580
      H1    -1.84597   14.13167    8.77874
       H     1.32933    2.69887    4.16362
       O     1.30999    3.46792    3.58954
      H1     1.66502    3.13594    2.73531
       H     3.06474    7.42374    0.39789
       O     2.61994    7.21821    1.25255
      H1     3.13330    6.46482    1.59371
       H     5.71126   13.91282    6.81136
       O     4.99536   14.45852    7.07635
      H1     4.49761   14.61757    6.28297
       H    -0.65895    4.42846    2.79241
       O    -1.46010    4.96758    2.58178
      H1    -1.99771    4.77070    3.41367
       H     1.60288    4.89289   -0.13886
       O     1.11951    5.70061   -0.41951
      H1     1.35706    6.43121    0.13687
       H     1.82189    5.14307    5.07616
       O     2.34807    5.49832    5.79949
      H1     2.08455    6.43851    5.82838
       H     2.69972   12.41004   10.02353
       O     2.00303   12.99667    9.65607
      H1     1.10348   12.62822    9.89669
       H     7.88840   12.43220    6.28529
       O     7.38784   12.98994    5.68809
      H1     6.65218   12.48688    5.27507
       H     3.97724   10.36647    5.34152
       O     4.87716   10.65342    5.59124
      H1     5.52589   10.02927    5.21660
       H     5.03881    8.62626    2.46328
       O     4.48976    8.99392    1.74218
      H1     3.71652    8.38962    1.73677
       H     0.95251    8.50390    7.59878
       O     0.24203    8.66481    8.27432
      H1    -0.51649    8.24533    7.80467
       H     5.20639    8.81013    7.07843
       O     4.64793    8.12357    7.54981
      H1     5.01631    7.36324    7.07844
       H    -3.58480    9.17853    7.51962
       O    -4.08665    8.39246    7.30857
      H1    -4.97520    8.63526    7.31185
       H    -2.35335    7.09569    6.84170
       O    -1.35775    7.23357    6.62928
      H1    -1.27402    7.98846    6.02573
       H     3.90150   15.26072    4.69693
       O     4.15712   14.35092    4.50514
      H1     4.96129   14.39529    3.99309
       H     6.17990    8.44612    8.60088
       O     6.91461    8.17076    9.13953
      H1     6.81599    7.20883    9.20367
       H     2.80660    8.35644    6.63555
       O     1.91969    8.12475    6.14808
      H1     1.85735    8.78078    5.43757
       H     5.18242    7.19687    4.42335
       O     4.29007    7.47774    4.71189
      H1     3.84113    6.63682    4.80170
       H     4.62284    3.77351    5.98015
       O     5.07412    3.86126    5.09782
      H1     5.92691    4.33616    5.38156
       H     7.45098    4.03907    9.04488
       O     7.42197    4.98331    9.21889
      H1     6.49374    5.12131    9.46010
       H     2.49483    9.74323    3.50841
       O     2.17617   10.25005    4.28713
      H1     1.51165   10.83209    3.89315
       H     7.82759    5.46975    6.13625
       O     7.42404    5.02254    5.38408
      H1     7.33740    5.68817    4.71348
       H    -2.94091   11.58096    4.69538
       O    -2.63080   11.32243    3.81985
      H1    -2.10542   10.53019    4.05766
       H     8.02140   10.07697    5.30405
       O     7.62427   10.23143    6.15010
      H1     8.35959   10.52429    6.66930
       H     1.52228    9.03507   11.18492
       O     0.52682    8.98065   10.93674
      H1     0.51030    9.01757    9.96965
       H     5.60543   11.93660    2.60505
       O     5.89268   11.63059    3.48735
      H1     5.11141   11.52528    4.04889

