180
frame 13 | Written by MDAnalysis XYZWriter (release 2.4.3)
       H   -19.06613   -2.85870    7.42245
       O   -18.85424   -2.13078    7.99305
      H1   -19.37280   -1.37679    7.71604
       H   -17.36677    1.42755    9.82353
       O   -18.04818    1.69185    9.20247
      H1   -17.63186    2.38838    8.64635
       H   -15.65939    0.21943   10.62736
       O   -16.18718    0.87480   11.08057
      H1   -15.64711    1.67698   11.12821
       H   -12.80225   -3.07958   16.72360
       O   -13.19126   -2.36494   16.21131
      H1   -12.76510   -1.52295   16.50033
       H   -10.68060   -2.56035    7.69777
       O   -11.69112   -2.55794    7.66083
      H1   -11.89659   -1.67405    7.89840
       H   -17.73000    0.50478   14.09147
       O   -17.49999    0.49188   15.08772
      H1   -17.13746    1.37457   15.23025
       H   -12.45239    3.36161   14.50841
       O   -11.82149    3.12094   13.77297
      H1   -11.89009    2.17438   13.81002
       H    -6.41622    0.53184   11.20187
       O    -6.96283    0.03028   11.82297
      H1    -7.78330    0.54470   11.88458
       H   -13.63190    5.58956    5.16876
       O   -13.61402    4.60404    5.15915
      H1   -13.67512    4.38060    4.17838
       H   -11.54902   -1.06450   10.64769
       O   -12.05424   -0.51737    9.98335
      H1   -12.87464   -0.96775    9.93569
       H   -15.90509   -4.67300    4.20007
       O   -15.85555   -4.25235    5.06149
      H1   -16.50744   -4.70448    5.59660
       H   -11.93934    3.41783   12.04192
       O   -11.52534    3.62402   11.17389
      H1   -12.31971    3.63878   10.54260
       H    -9.41267    4.30316    7.90787
       O    -9.25101    3.58006    8.56129
      H1   -10.02783    2.98151    8.50364
       H   -12.19108    1.80743    6.52943
       O   -12.26106    2.72734    6.91144
      H1   -12.39046    3.37678    6.24580
       H   -10.80570   -6.14863    6.46847
       O   -11.73075   -6.14007    6.76535
      H1   -11.96120   -5.20324    6.72655
       H   -11.83142   -0.35088    3.14020
       O   -11.42110   -0.93958    3.75251
      H1   -12.02158   -1.72521    3.76106
       H   -12.07538    0.08089   13.44027
       O   -11.43833   -0.08584   14.19325
      H1   -11.17507   -0.96172   13.87962
       H   -17.43443    0.16332   12.07715
       O   -18.23105   -0.13339   12.54507
      H1   -18.56592   -0.95041   12.02002
       H   -18.23569   -7.62956   10.08316
       O   -17.88558   -6.95230   10.70254
      H1   -18.14059   -7.41067   11.53523
       H   -12.99787   -5.98046   11.41098
       O   -13.03674   -6.43143   10.51062
      H1   -13.96254   -6.64445   10.50640
       H    -8.46293   -1.81513   13.95147
       O    -9.18395   -2.39230   13.68348
      H1    -9.00899   -3.20088   14.19263
       H   -17.50330   -5.70021   13.59146
       O   -16.94985   -4.87313   13.73652
      H1   -17.56078   -4.12423   13.75939
       H   -16.95923   -1.69581   14.53002
       O   -16.29024   -2.34667   14.84749
      H1   -15.65610   -1.75468   15.29805
       H   -11.90350   -0.25103    5.31896
       O   -12.44344    0.20366    6.02226
      H1   -13.21174   -0.38851    6.23253
       H   -16.19412   -7.63042   10.44950
       O   -15.37703   -8.03583   10.60706
      H1   -15.64869   -8.96655   10.53578
       H   -16.65034   -6.58453    7.56844
       O   -16.95073   -5.67738    7.31642
      H1   -16.39650   -5.15858    7.90761
       H   -13.97186   -0.39209    1.40413
       O   -14.78133   -0.52668    1.94616
      H1   -14.74004    0.28858    2.53969
       H   -14.41500    3.66771   11.01833
       O   -14.94214    3.50406   11.78453
      H1   -14.62347    4.21880   12.35375
       H    -8.35381   -0.78810   15.76182
       O    -8.58885   -0.15548   15.08609
      H1    -9.41674   -0.50326   14.81690
       H   -15.53565    4.41902    8.48415
       O   -16.18972    4.34305    7.78351
      H1   -16.46611    5.28739    7.74328
       H   -11.00458    0.60797    9.08061
       O   -10.18251    1.02281    8.66358
      H1    -9.73176    1.31858    9.49273
       H   -14.34324   -5.60894   13.50291
       O   -13.49793   -6.14033   13.50238
      H1   -13.37622   -6.44831   14.44216
       H    -8.41812   -4.39473   10.44307
       O    -8.86875   -4.29998    9.52834
      H1    -9.39236   -5.10653    9.35787
       H   -19.39648    1.53908    4.64490
       O   -18.51975    1.23147    4.37350
      H1   -18.11651    0.77355    5.11848
       H   -12.23536   -7.95606   11.35034
       O   -11.70825   -8.67772   11.84491
      H1   -12.46133   -9.11405   12.28255
       H   -12.26702   -2.98556    5.78967
       O   -12.44052   -3.54265    5.09193
      H1   -13.43932   -3.70049    5.21136
       H   -11.10416   -6.18065    8.29419
       O   -10.63727   -6.20122    9.12202
      H1   -11.46029   -6.11896    9.61233
       H   -15.37802    1.51889    4.47547
       O   -15.61037    1.52846    3.57256
      H1   -15.34067    2.38522    3.19708
       H   -12.13399   -6.33291    3.70236
       O   -11.45765   -5.60553    3.70238
      H1   -11.74382   -5.03729    4.40956
       H   -16.82397   -4.26324   11.53815
       O   -17.49481   -4.44341   10.81992
      H1   -17.36160   -5.36018   10.61286
       H   -15.22263    2.69197    6.71353
       O   -14.88752    1.79421    6.87216
      H1   -13.97326    1.86714    6.99186
       H    -9.77953   -2.67070   10.50172
       O   -10.27821   -2.11768   11.13522
      H1    -9.80215   -2.38621   11.95773
       H   -18.29266   -2.96886   10.77659
       O   -18.94323   -2.23722   10.69912
      H1   -18.95499   -2.14400    9.70957
       H   -15.42854   -1.77364   10.37147
       O   -14.87747   -1.16022    9.90364
      H1   -15.00646   -1.23325    8.97463
       H   -10.38266    2.51716   11.30472
       O    -9.57162    1.92926   11.24309
      H1    -8.90720    2.48697   11.67201
       H   -13.51457    4.56490    8.95037
       O   -13.54303    3.62549    9.24345
      H1   -13.08945    3.20105    8.53084
       H   -16.90610   -1.03144   16.63096
       O   -16.86201   -0.83246   17.56033
      H1   -16.41757   -1.61355   18.01975
       H   -14.34144   -3.16825   11.89211
       O   -15.25685   -3.15820   12.15607
      H1   -15.19897   -3.01551   13.09702
       H   -12.61760    0.70504   11.19711
       O   -12.99269    1.08304   12.02309
      H1   -13.91940    0.93494   11.83274
       H   -18.71764   -2.72418    5.03841
       O   -17.86846   -2.25022    4.87391
      H1   -17.14533   -2.96860    4.78243
       H   -17.75720    5.82283   11.51762
       O   -18.40532    5.56315   12.14239
      H1   -18.42864    4.56380   12.03610
       H   -12.46137   -3.59470   11.07848
       O   -13.16829   -3.54673   10.37148
      H1   -12.68979   -3.14595    9.61840
       H   -14.86501   -2.27636    7.09533
       O   -14.51944   -1.37304    7.04803
      H1   -15.19286   -0.80096    6.66576
       H    -9.46097   -0.68008    8.02914
       O    -9.11808   -1.55597    7.82007
      H1    -8.67315   -1.29031    7.00077
       H   -15.08000   -3.45731    9.14831
       O   -15.86286   -3.44606    8.58064
      H1   -16.55954   -3.53857    9.27042
       H   -12.82205   -2.77000   14.09229
       O   -12.80931   -3.32624   13.32405
      H1   -12.63429   -4.21559   13.66631
       H   -15.77285   -4.36091   15.65595
       O   -15.21819   -4.83348   16.30627
      H1   -15.70973   -5.67046   16.44746
       H   -14.44974   -7.89010   13.50219
       O   -15.30710   -8.31402   13.41061
      H1   -15.38768   -8.15825   12.49115
       H   -17.16350    3.77222    5.42004
       O   -17.17267    3.68412    4.46681
      H1   -17.61785    2.83273    4.40086
       H   -17.37055   -0.93084    5.67052
       O   -17.20477   -0.21005    6.25340
      H1   -17.48864   -0.61155    7.07566

