180
frame 4 | Written by MDAnalysis XYZWriter (release 2.4.3)
       H    15.15604   17.51414   -2.18311
       O    15.43369   18.32239   -1.68253
      H1    16.35233   18.11208   -1.50859
       H    16.05469   10.07539   -6.14602
       O    16.27826   10.59139   -6.98994
      H1    15.38790   11.03367   -7.09117
       H     8.83555   15.02264   -4.64393
       O     9.67544   15.52456   -4.67089
      H1     9.44024   16.32515   -4.14228
       H    15.34663   16.05285  -14.62731
       O    15.14588   15.78767  -13.72643
      H1    14.21340   15.87891  -13.78268
       H    13.88311   17.09707   -5.52343
       O    14.27699   17.54980   -4.71921
      H1    13.50770   17.41699   -4.13315
       H    15.98706   17.73948   -6.21495
       O    16.19042   18.17383   -7.07373
      H1    17.01805   17.76858   -7.33841
       H    16.54610   11.11736  -15.16672
       O    17.33872   11.53125  -14.70518
      H1    17.63309   12.19340  -15.35072
       H    19.10382    9.26676   -8.04721
       O    19.27476    9.63204   -8.92826
      H1    18.40011    9.88654   -9.19678
       H    18.21226   14.92782  -18.57693
       O    18.32607   15.75486  -18.05317
      H1    17.56918   15.54881  -17.45401
       H    16.73802    8.77846   -4.65396
       O    15.90000    9.28235   -4.76305
      H1    15.38753    9.26350   -3.96518
       H    15.04430   18.64365   -0.16405
       O    14.88817   19.00765    0.77557
      H1    15.44082   19.71748    0.94969
       H    11.60301   15.97175  -17.14152
       O    12.38201   15.73900  -16.63443
      H1    12.78177   15.09189  -17.28781
       H    10.98344   15.43949  -12.31910
       O    10.60923   15.65203  -11.48280
      H1     9.68590   15.86094  -11.68188
       H    13.87124   14.79199   -1.34159
       O    12.88697   14.99373   -1.37733
      H1    12.50024   14.17780   -1.63784
       H    16.87465   19.06684  -13.36756
       O    16.76397   19.81201  -12.76035
      H1    15.99036   19.56840  -12.22200
       H    11.47685   17.42014  -10.90797
       O    12.13897   18.05327  -10.49163
      H1    13.00654   17.85565  -10.91675
       H    18.23901   18.30042   -0.83936
       O    18.35677   17.60690   -1.49702
      H1    18.29535   16.86930   -0.94515
       H     9.68796   13.79005   -7.56711
       O    10.09360   13.48229   -6.73966
      H1    10.58228   14.29835   -6.49718
       H    16.91425   13.57691  -17.11915
       O    16.24820   14.23125  -16.82966
      H1    15.44809   13.91549  -17.29398
       H    11.36842   16.33420   -9.25921
       O    11.45724   16.09619   -8.32933
      H1    11.11304   16.86767   -7.89621
       H    20.08759   14.88828   -4.92878
       O    19.41773   15.56580   -4.68064
      H1    18.78916   14.97149   -4.26407
       H    11.21939   13.59829   -3.96695
       O    11.56906   12.69026   -3.82805
      H1    10.86042   12.19467   -4.27297
       H    16.97714   10.95298   -3.41786
       O    17.24859   11.42807   -2.63363
      H1    16.68159   11.01715   -1.87140
       H    12.47075   15.82347  -14.68243
       O    12.39234   15.67294  -13.69720
      H1    12.02271   16.52201  -13.38618
       H     9.47770   19.07591  -14.56666
       O     8.63228   19.38352  -14.89765
      H1     8.75556   19.82587  -15.75362
       H    14.94745   17.23256  -12.49191
       O    14.81719   17.92648  -11.75582
      H1    15.12761   17.51048  -10.86662
       H    17.18472   12.11585   -7.03576
       O    17.93865   12.72625   -7.16137
      H1    17.45396   13.56589   -7.08998
       H    15.94159   12.59756  -13.24627
       O    15.22108   13.15488  -13.02296
      H1    15.37374   13.96196  -13.48386
       H    16.54293   14.00490   -4.17145
       O    17.32737   14.03719   -3.64377
      H1    17.38161   13.15562   -3.30311
       H    19.42566   15.78514  -13.83465
       O    19.51858   16.33966  -13.06503
      H1    19.02524   15.88556  -12.36585
       H    18.36157   15.43059   -9.90751
       O    17.75001   15.70418  -10.62673
      H1    17.28284   14.92468  -10.77901
       H    19.10405   11.64872   -6.23431
       O    19.57148   10.95860   -5.79994
      H1    19.11176   10.15460   -6.08629
       H    19.25593   18.21567  -12.41608
       O    19.30765   19.05820  -11.96682
      H1    18.38466   19.38804  -12.00343
       H    18.62750   11.14252  -13.72373
       O    19.40796   11.27789  -13.14875
      H1    19.79264   10.43183  -12.94437
       H    11.62325   13.44906   -7.99200
       O    12.44334   13.08781   -8.30818
      H1    12.41276   13.32273   -9.25894
       H     8.94770   17.98124   -6.93878
       O     9.70736   17.88763   -6.40777
      H1     9.42263   17.07809   -6.01844
       H    11.40319   18.55828  -14.95210
       O    11.05332   18.51103  -14.06109
      H1    11.38682   19.29695  -13.67276
       H    16.16041   18.57369  -15.56593
       O    16.79524   18.01713  -15.08891
      H1    17.59952   18.17577  -15.54832
       H    10.84766   13.83373  -10.83273
       O    11.14803   12.88661  -10.75781
      H1    10.31332   12.49690  -10.50430
       H    19.27648   13.89758  -17.35153
       O    19.08003   13.60151  -16.46482
      H1    19.97117   13.36926  -16.17516
       H    17.26393   15.37498   -5.99197
       O    16.57275   15.03849   -6.56682
      H1    15.95384   14.64977   -5.89795
       H    16.89254    9.31459  -12.23921
       O    17.05115    8.64857  -12.93308
      H1    16.88432    7.82899  -12.44736
       H    10.84645   19.15373   -7.28589
       O    11.11625   19.81809   -7.98855
      H1    11.78328   19.31632   -8.51001
       H    13.11337   10.55615  -12.61979
       O    13.17371    9.76051  -12.03564
      H1    12.67160   10.15988  -11.28976
       H    14.33896   13.64299   -5.09432
       O    14.73913   14.46735   -4.77938
      H1    14.33297   15.11287   -5.42546
       H     8.72128   18.50500   -9.42358
       O     8.98642   19.28731   -9.90751
      H1     9.51677   19.91451   -9.45636
       H    16.35513   14.89213   -2.02582
       O    15.51257   15.48062   -1.95295
      H1    15.15150   15.40143   -2.87637
       H    12.91392   15.66311   -7.46499
       O    13.69674   15.77947   -6.86083
      H1    14.39440   15.44459   -7.43817
       H    13.19052   11.69701   -7.54292
       O    13.66322   11.16842   -6.90865
      H1    13.33165   10.27149   -7.05225
       H    19.21324   18.68691   -8.46561
       O    18.49306   17.99381   -8.56994
      H1    18.07928   18.01456   -9.39174
       H    13.38398   11.94885   -3.87816
       O    14.20738   11.68903   -4.32904
      H1    13.76813   11.29938   -5.05888
       H    13.97742   17.60839  -18.67213
       O    13.73592   17.72924  -17.73472
      H1    13.46194   16.85159  -17.41970
       H    16.00043   10.09197  -10.52523
       O    16.95724   10.22580  -10.43862
      H1    17.01850   11.17750  -10.60900
       H    18.68864   12.18197  -11.76237
       O    18.25174   12.64259  -11.01626
      H1    18.87404   12.71907  -10.30091
       H    12.70139   16.43580   -2.35646
       O    12.61064   17.35015   -2.65364
      H1    12.68638   17.83273   -1.79888
       H    18.89015   17.46652   -4.55918
       O    19.17982   18.34326   -4.77439
      H1    18.31074   18.76796   -4.94355
       H     9.78451   17.05616   -2.02990
       O     9.85547   17.64186   -2.82539
      H1    10.82522   17.68155   -2.96242
       H    10.95292   19.39654  -17.16228
       O    11.26031   18.53143  -16.97050
      H1    12.18703   18.51368  -17.24986
       H    16.65370   16.64841   -9.70091
       O    15.73345   16.89493   -9.40133
      H1    15.89344   17.64131   -8.78580
       H    13.17132   12.50843  -13.51474
       O    12.26474   12.14421  -13.38348
      H1    11.91068   12.65862  -12.62676

