180
frame 6 | Written by MDAnalysis XYZWriter (release 2.4.3)
       H    -1.51031   15.60594   -2.24885
       O    -1.67723   16.31066   -1.61210
      H1    -0.98066   16.25121   -0.96028
       H    -4.37919   17.91104   -8.64270
       O    -3.36802   18.01558   -8.72316
      H1    -3.12756   18.33108   -7.77245
       H    -2.05288   12.27909   -7.39732
       O    -2.00097   11.32940   -7.54849
      H1    -1.31400   11.33207   -8.22595
       H    -4.08275   16.08931   -4.59506
       O    -3.26276   15.53497   -4.50221
      H1    -3.55764   14.71868   -4.08575
       H    -0.32545   11.22565   -1.06758
       O     0.39112   11.12570   -1.69312
      H1     0.25912   10.28366   -2.17695
       H    -6.02187   12.39023   -6.58486
       O    -5.23077   12.97981   -6.41440
      H1    -5.63245   13.54937   -5.75300
       H     1.84506   15.41638   -2.16650
       O     2.13496   16.27340   -1.81641
      H1     1.54010   16.83718   -2.28950
       H    -6.00706   17.78090   -5.14336
       O    -5.66740   17.00602   -4.62174
      H1    -6.24767   16.30716   -4.92689
       H     2.44882   19.06667   -4.48981
       O     1.52467   19.31688   -4.64625
      H1     1.28224   18.57081   -5.18680
       H     0.19318   17.72228   -0.52345
       O    -0.02137   17.38453    0.38060
      H1    -0.80397   17.90585    0.56932
       H     2.88950   14.44177    1.38514
       O     2.58719   13.64488    1.84429
      H1     3.06817   13.75371    2.66596
       H     6.33267   18.79197    3.66040
       O     5.36488   18.68048    3.80272
      H1     5.05430   18.76555    2.90615
       H    -6.77775   18.12055   -0.25138
       O    -5.94748   18.44726    0.14346
      H1    -5.95521   19.35922   -0.01929
       H    -0.34862   13.36031    3.05228
       O    -0.03861   12.85534    3.80542
      H1    -0.85863   12.37913    4.15887
       H     4.03040   11.55249   -1.58701
       O     4.02547   11.76370   -2.54623
      H1     3.47948   11.03138   -2.88939
       H    -2.98902   15.36967   -0.64946
       O    -3.49858   15.05020    0.14722
      H1    -3.02198   14.26904    0.33782
       H    -2.99460   18.33905    1.26037
       O    -2.09691   18.70489    1.24948
      H1    -2.17125   19.48289    0.64730
       H    -8.09394   17.39419   -3.13739
       O    -7.47701   17.25008   -2.43304
      H1    -6.70513   17.06403   -2.97234
       H    -2.21889   17.28321   -4.30208
       O    -1.81059   18.13733   -4.35979
      H1    -1.29877   18.08898   -5.20367
       H    -5.22067   13.82197   -2.37403
       O    -4.54102   13.35369   -2.88641
      H1    -4.16210   12.76104   -2.25529
       H     1.02291   14.08235   -6.47005
       O     0.57322   14.15836   -7.31293
      H1    -0.35321   14.16550   -6.97198
       H     4.37793   11.04135    1.21773
       O     3.95747   11.56631    0.50272
      H1     3.58052   12.32534    0.93660
       H     2.78410   12.95559   -1.98081
       O     1.98286   13.33439   -1.58577
      H1     1.56864   12.45373   -1.32665
       H    -0.77569   15.97340    4.70617
       O    -0.50091   15.36625    5.43655
      H1    -0.27190   14.59377    4.94422
       H    -0.03580   13.75149   -2.48365
       O    -0.43150   14.30004   -3.19125
      H1    -1.01188   13.66734   -3.66401
       H     8.24387   19.54586   -2.71603
       O     8.33456   19.01129   -1.85295
      H1     8.84205   18.23207   -2.26371
       H    -0.30047   12.69909   -9.64729
       O     0.00134   11.99909   -9.03873
      H1     0.39098   12.59779   -8.34593
       H     2.38321   14.76231   -4.60500
       O     1.86180   13.96951   -4.79122
      H1     1.12413   14.10045   -4.19233
       H    -2.23087   11.37846   -4.25999
       O    -1.32227   11.52476   -4.03608
      H1    -1.23036   11.16959   -3.14357
       H    -3.00918   16.45910   -8.88514
       O    -2.85039   15.49015   -9.15265
      H1    -3.68726   15.09001   -8.91835
       H     1.37880   18.17672    1.34398
       O     1.89087   18.58426    2.07460
      H1     2.84379   18.67462    1.58000
       H     4.38947   17.39919    1.20630
       O     4.53797   18.39716    1.17367
      H1     5.06506   18.52885    0.35449
       H    -2.08111   14.47358   -7.78579
       O    -2.11723   13.88990   -7.02020
      H1    -2.66173   14.43497   -6.44480
       H     4.69842   17.70836   -6.46684
       O     3.69966   17.67428   -6.35381
      H1     3.42779   17.01881   -7.02312
       H    -3.19461   16.25957    5.13866
       O    -2.95460   16.90287    4.51980
      H1    -3.48918   16.93695    3.78701
       H    -7.39900   14.71566   -5.82866
       O    -6.82081   14.64240   -5.06763
      H1    -7.13168   13.76417   -4.87210
       H     5.43739   14.98072   -2.85962
       O     6.36373   15.07948   -2.52080
      H1     6.54296   14.12803   -2.28884
       H    -4.57313   18.52243   -1.26363
       O    -3.81218   18.49570   -1.91280
      H1    -3.55233   17.61150   -1.74984
       H    -2.19964    9.93789   -1.28795
       O    -2.60937   10.62463   -1.84560
      H1    -2.36445   11.42523   -1.32932
       H     3.48266   15.97047   -0.17681
       O     3.97350   15.78965    0.59796
      H1     4.87558   15.70843    0.23352
       H     9.40628   19.03325   -4.94974
       O     8.70146   19.68517   -4.89168
      H1     7.94643   19.08298   -5.13681
       H     1.98063   17.29947    6.08548
       O     2.82261   16.99646    5.79970
      H1     3.26173   17.71161    5.29224
       H    -4.71980   12.08325   -3.98646
       O    -4.49642   11.36796   -4.64339
      H1    -4.61194   11.85117   -5.45455
       H    -2.09958   18.06667    7.12113
       O    -1.94326   18.53744    6.27060
      H1    -2.51974   18.02189    5.69806
       H    -2.27397   11.99004    0.63685
       O    -1.85309   12.57289   -0.02726
      H1    -1.19066   12.99054    0.58051
       H    -3.31560   19.06303   -5.33480
       O    -3.65358   19.19150   -6.30476
      H1    -4.60082   19.34928   -6.01478
       H    -0.71438   18.34187   -2.86941
       O     0.06629   18.63181   -2.31166
      H1     0.63939   18.86776   -3.10268
       H    -5.28269   17.27513    1.41061
       O    -4.52003   16.98963    1.91229
      H1    -4.32721   16.22392    1.24176
       H     3.50082   15.54737    4.81047
       O     3.89377   14.76561    4.40227
      H1     4.77271   15.11799    4.11058
       H     0.74809   18.27827    4.17534
       O     0.53523   18.86884    4.87860
      H1    -0.11813   18.47232    5.41202
       H     3.39473   16.25160   -3.31627
       O     3.79018   15.91504   -4.15068
      H1     3.88328   16.78072   -4.51656
       H    -0.11655   14.95830    1.91702
       O    -0.26946   14.16328    1.37311
      H1     0.64006   13.93834    1.23083
       H    -0.74121   19.17255   -6.71934
       O    -0.32783   18.28338   -6.66063
      H1    -0.03271   18.18342   -7.63401
       H     3.13024   12.77488   -5.62767
       O     3.93704   12.53097   -6.17423
      H1     3.65876   11.59683   -6.38808
       H     6.33046   19.19551   -5.97404
       O     6.20134   18.30321   -5.52599
      H1     5.47115   18.48683   -4.85872
       H     1.42932   15.61227   -7.50021
       O     1.78488   16.45854   -7.84282
      H1     1.77217   16.35971   -8.76708
       H    -0.71992   16.92106    2.08620
       O    -0.78255   16.54671    2.93982
      H1    -1.76776   16.64944    3.15406
       H     0.05833   11.19425   -6.66103
       O     0.50990   10.93162   -5.85758
      H1    -0.22158   11.15988   -5.24887
       H    -6.23481   18.50347    3.25361
       O    -6.44416   18.20132    4.17791
      H1    -7.42442   18.32303    4.28620
       H     6.95921   18.00834   -1.47635
       O     6.35757   17.37390   -1.03901
      H1     6.47947   16.63635   -1.64311

