180
frame 1 | Written by MDAnalysis XYZWriter (release 2.4.3)
       H    15.33168  -17.66995   -1.78971
       O    15.21818  -18.41635   -2.42568
      H1    15.12749  -19.19261   -1.92508
       H    13.92754  -17.34848    1.91093
       O    14.71794  -16.76490    1.81892
      H1    14.56959  -15.96549    2.35850
       H    11.75218  -12.23457   -3.64996
       O    10.86632  -12.66127   -3.90493
      H1    10.84215  -12.26558   -4.81873
       H    16.41605  -15.38910   -2.25417
       O    17.00688  -15.46411   -3.05382
      H1    17.59735  -16.20481   -2.77062
       H    10.51087  -15.71392   -3.05819
       O    10.54674  -15.91752   -2.13340
      H1    11.29347  -16.51430   -2.05719
       H    13.05862   -8.49632   -7.58323
       O    13.89164   -9.00267   -7.46897
      H1    14.23555   -8.84083   -6.60791
       H    17.12513   -7.02794   -3.70542
       O    16.78977   -6.74831   -2.81120
      H1    17.30446   -5.95068   -2.62311
       H    12.62611  -10.75175   -9.51445
       O    13.55265  -10.91257   -9.25328
      H1    13.77763  -10.12919   -8.72448
       H    11.13370  -12.72952    1.57784
       O    11.98743  -12.35983    1.89512
      H1    11.84939  -12.03802    2.78912
       H    12.06480  -18.75364   -3.54609
       O    12.30738  -18.18942   -2.78236
      H1    13.27983  -18.30154   -2.63942
       H    11.78146  -11.39194    0.30453
       O    12.07212  -10.76247   -0.37987
      H1    11.32187  -10.33665   -0.73671
       H    12.91312   -6.03094   -2.44723
       O    12.67245   -5.11694   -2.48863
      H1    13.52308   -4.65863   -2.45838
       H    17.92459  -15.51112   -5.82264
       O    18.72870  -15.96769   -6.00391
      H1    18.64108  -16.79136   -5.45197
       H    13.97201  -19.16934   -8.46830
       O    14.84310  -19.51277   -8.71811
      H1    15.21337  -19.73988   -7.82451
       H    12.73405   -9.05615   -4.68567
       O    13.54492   -9.26423   -4.17540
      H1    13.43911  -10.18620   -3.99204
       H    17.50567   -6.29196   -6.42339
       O    16.84060   -6.78358   -5.91226
      H1    16.04233   -6.28633   -6.10600
       H    12.99360   -8.21684   -1.26842
       O    12.58609   -7.84715   -2.04979
      H1    12.85484   -8.45508   -2.78889
       H     9.14104  -14.93212   -4.72808
       O    10.06089  -15.00176   -5.09288
      H1    10.40400  -14.19391   -4.67019
       H     8.68083  -15.36844   -7.53897
       O     9.50236  -15.92201   -7.63974
      H1     9.94878  -15.78146   -6.80742
       H    10.34293  -16.64913    0.20059
       O    10.33029  -15.98976    0.94012
      H1    10.00307  -15.18687    0.50887
       H    17.40597  -14.00624  -10.45876
       O    18.22317  -13.80381   -9.95428
      H1    18.53211  -14.71054   -9.86434
       H    15.88135   -9.64168    1.79539
       O    16.06215   -8.66086    1.79850
      H1    16.78304   -8.58507    1.17899
       H    15.85509  -15.21723    0.61829
       O    16.52788  -14.73035    1.08033
      H1    17.21936  -15.40130    1.11776
       H    17.45858  -12.63280   -7.27991
       O    17.78419  -11.89863   -7.81892
      H1    17.93920  -12.35304   -8.62356
       H    16.24730  -13.85949   -3.20291
       O    15.58010  -13.18055   -3.34023
      H1    16.00573  -12.34093   -3.41554
       H    13.58538  -13.80097    2.80378
       O    13.82542  -14.62663    3.28625
      H1    12.92754  -14.95544    3.43352
       H    14.26464   -8.39280    0.85668
       O    13.32752   -8.33921    0.68322
      H1    13.14990   -9.30296    0.47838
       H    11.05924  -11.92598   -7.20865
       O    10.85519  -11.56650   -6.34841
      H1    11.19728  -10.65269   -6.40609
       H    13.91489  -12.28959   -2.95301
       O    13.18155  -11.65894   -3.11236
      H1    13.19743  -11.22201   -2.25818
       H    18.58667  -16.45579   -9.56454
       O    19.16886  -15.93318   -8.96032
      H1    18.90343  -16.20759   -8.02306
       H    17.44596  -18.05774   -0.64432
       O    17.14984  -18.74082   -0.01720
      H1    17.55723  -18.47798    0.78178
       H    17.74357  -10.13742   -6.90180
       O    17.99691   -9.54377   -6.18039
      H1    17.58280   -8.68479   -6.26237
       H    11.17164   -5.70893   -4.78118
       O    12.02293   -6.08786   -5.18266
      H1    12.55343   -6.07178   -4.38647
       H    16.83053  -18.36687   -5.17280
       O    17.38782  -18.83958   -5.81769
      H1    16.99524  -19.72824   -5.99346
       H    14.80614  -16.42391    0.08560
       O    15.02643  -16.22244   -0.84136
      H1    14.25182  -15.72760   -1.12111
       H    15.58284  -15.31695  -10.64477
       O    15.73423  -14.42135  -11.05860
      H1    15.34530  -14.51815  -11.92070
       H    15.52010   -9.64744   -0.94302
       O    15.04005  -10.52346   -0.92797
      H1    15.76582  -11.16260   -0.92553
       H     9.15189   -9.44937   -4.29159
       O     8.65876   -9.43492   -5.15388
      H1     8.47237  -10.32951   -5.39429
       H    16.82685  -10.52598   -8.92023
       O    16.90243   -9.59803   -9.27418
      H1    17.85168   -9.37196   -9.31514
       H    10.15753   -8.99417   -5.67881
       O    11.03708   -8.61779   -5.85365
      H1    11.10023   -7.86835   -5.26933
       H     9.38094  -12.58558   -2.85322
       O     8.70477  -12.74307   -2.20011
      H1     8.02038  -12.22186   -2.64896
       H    18.29202   -9.25636   -0.40773
       O    18.45747   -8.60132    0.32403
      H1    18.56221   -7.71097   -0.07664
       H     9.15958  -17.44038   -4.91076
       O     9.72563  -18.14749   -4.63801
      H1     9.45933  -18.91022   -5.17040
       H    14.39848  -15.43702   -5.08444
       O    14.15082  -14.55240   -5.42186
      H1    14.35754  -13.95881   -4.65812
       H    16.85495   -9.97801   -4.68610
       O    16.46134  -10.33497   -3.88988
      H1    15.75447   -9.70496   -3.74346
       H    10.98496  -15.88824    2.53868
       O    11.50173  -15.95350    3.36454
      H1    11.92542  -16.82230    3.29700
       H    11.88889  -13.53927   -8.57762
       O    10.91860  -13.47710   -8.67923
      H1    10.62466  -14.38832   -8.71624
       H     9.17112   -9.19952   -1.97313
       O     9.77093   -9.78119   -2.46564
      H1     9.41610  -10.66103   -2.35765
       H    15.81532  -14.43189   -6.37632
       O    16.72409  -14.32103   -6.73057
      H1    16.49301  -14.68927   -7.62476
       H     8.42582  -13.09092    0.83283
       O     9.38611  -13.17728    0.63016
      H1     9.29530  -12.96370   -0.30067
       H    13.86650  -12.70606   -8.20749
       O    13.52559  -13.58801   -8.26835
      H1    13.28216  -13.91073   -7.37320
       H    13.00186  -13.67864   -0.16063
       O    13.02483  -14.36626   -0.82187
      H1    12.08484  -14.38515   -1.11576
       H    19.22798   -9.71248   -2.31341
       O    18.39472   -9.93589   -1.94748
      H1    17.75177  -10.05149   -2.64040
       H    15.97386   -9.88906  -10.95969
       O    15.27334  -10.20214  -11.52017
      H1    14.76855  -10.51687  -10.78711
       H    13.79831  -11.06386    2.18614
       O    14.61979  -11.09344    2.71622
      H1    15.28980  -11.43776    2.07516
       H    19.43433  -16.49686   -1.01226
       O    18.64564  -16.91407   -1.48431
      H1    19.27776  -17.39520   -2.05595
       H    16.19478  -16.33444   -4.16245
       O    15.68608  -16.86320   -4.75289
      H1    15.41600  -17.56161   -4.14548
       H    16.83820  -13.06089    1.28458
       O    16.81923  -12.08879    0.98661
      H1    17.72818  -11.86862    1.20658
       H    17.04288  -14.46275    4.40799
       O    16.35380  -13.80347    4.49138
      H1    15.59920  -14.13168    3.97094
       H    10.36274  -19.13332   -0.52958
       O    11.17613  -18.62171   -0.29480
      H1    11.54625  -18.45473   -1.17791

