180
frame 4 | Written by MDAnalysis XYZWriter (release 2.4.3)
       H    -2.61759    3.93943    4.63922
       O    -3.34427    4.16149    4.07289
      H1    -3.73854    4.91233    4.59019
       H    -7.40442    1.68748    8.78358
       O    -7.08680    1.43032    9.65111
      H1    -7.89172    1.79305   10.05123
       H    -4.49317    6.55413   10.74592
       O    -3.68022    6.76469   10.22699
      H1    -4.00360    7.45800    9.63611
       H    -5.03446    7.62072   -1.86688
       O    -5.85566    7.34417   -1.40818
      H1    -5.89697    7.71958   -0.51815
       H    -1.91735    4.64308   10.24603
       O    -1.99546    3.84394    9.67318
      H1    -2.62149    4.16628    8.95395
       H    -6.55687    7.98443    7.55506
       O    -6.12453    8.82825    7.35586
      H1    -6.77756    9.44671    7.72683
       H    -0.31578    9.91129    5.56960
       O    -0.91963    9.28446    5.14416
      H1    -0.26762    8.78930    4.70440
       H    -4.62831    4.20595    7.48511
       O    -3.81532    4.63800    7.79519
      H1    -4.17138    5.33336    8.33048
       H   -11.02844    1.77050    5.04124
       O   -11.69516    1.79892    5.74776
      H1   -12.27442    0.98685    5.65963
       H    -9.21122   10.97473    8.44705
       O    -8.62539   10.22330    8.22238
      H1    -9.45238    9.57368    8.19723
       H    -4.86815    3.85819   10.53937
       O    -5.58760    4.03725    9.93777
      H1    -6.08005    3.18375   10.04246
       H   -10.09931    4.93142    8.95121
       O    -9.89416    5.65917    9.53305
      H1    -9.34365    5.29112   10.22380
       H    -2.97291    8.46048    2.64869
       O    -3.80660    8.96064    2.79167
      H1    -3.45513    9.85971    2.77610
       H   -10.92915    2.84926    7.74145
       O   -11.23191    3.79946    7.70049
      H1   -11.23707    3.88196    6.74277
       H    -8.62136    2.70600    7.34069
       O    -8.58545    1.75090    7.38605
      H1    -9.31940    1.51554    7.96726
       H    -6.23091    1.28072    6.56976
       O    -5.61951    2.03771    6.44292
      H1    -6.26412    2.77718    6.30660
       H   -12.16839    9.46525    7.75483
       O   -11.21123    9.29416    7.91245
      H1   -11.05711    8.38479    7.55102
       H   -11.60353    0.92512    9.25117
       O   -10.89349    1.16026    8.63421
      H1   -11.42580    1.26335    7.77739
       H    -7.01867    4.74290   -0.88229
       O    -6.06244    4.70434   -1.15626
      H1    -5.89671    5.66461   -1.30602
       H    -7.68485    4.28915    5.62070
       O    -7.12842    4.44378    6.38916
      H1    -6.45405    5.02710    5.92724
       H    -5.30948    6.83883    4.52093
       O    -5.40518    5.87992    4.52600
      H1    -5.58084    5.65445    3.59200
       H    -5.16890    8.80024    1.54845
       O    -5.92309    8.83994    0.96496
      H1    -6.56774    8.33080    1.44096
       H    -9.47104    9.08395    2.71549
       O    -9.91661    9.31873    1.89892
      H1    -9.80833    8.61966    1.27753
       H   -10.89786    5.64711    2.69721
       O   -10.24711    4.99769    2.42830
      H1   -10.71577    4.34312    1.94774
       H    -6.48026    2.31925    3.91594
       O    -7.42392    2.35621    3.93073
      H1    -7.72130    2.07624    4.77731
       H    -1.24770    5.24118   -0.76005
       O    -2.12867    5.44561   -0.47486
      H1    -2.01305    5.50608    0.48186
       H    -8.36868    8.74333    4.71091
       O    -9.35283    8.96556    4.56237
      H1    -9.46504    9.81950    5.01395
       H    -8.84663    6.45611   11.45840
       O    -8.24029    5.68466   11.52083
      H1    -8.53650    5.37234   12.39366
       H    -6.50513    8.87179    5.71308
       O    -6.54695    8.64440    4.73252
      H1    -6.33827    9.46323    4.33779
       H    -8.85932    2.46280   11.79334
       O    -9.22094    2.57877   10.90041
      H1   -10.18790    2.56110   11.06473
       H   -11.64760    5.92976    9.63092
       O   -12.47383    6.37495    9.37177
      H1   -12.43075    6.29941    8.41207
       H    -8.86053    6.08033    2.01194
       O    -8.04597    6.61140    1.67713
      H1    -7.45305    5.84228    1.67898
       H    -6.32666    9.64466   11.00661
       O    -5.70706    8.88310   10.84669
      H1    -4.93811    9.47244   10.52179
       H    -1.91860    3.15708    6.86116
       O    -1.35195    3.34776    6.14081
      H1    -0.53381    3.78309    6.45827
       H    -4.50189   -0.91981    8.07233
       O    -5.35757   -0.53684    7.75162
      H1    -5.56577   -0.16644    8.62593
       H    -9.07971   -1.26324    9.59816
       O    -8.68304   -1.20507    8.73602
      H1    -8.12225   -0.40963    8.86306
       H    -0.47159    4.50420    2.27854
       O    -1.25804    5.05297    2.11208
      H1    -1.93827    4.54690    2.63913
       H    -5.86205   12.09646    4.64869
       O    -6.78048   11.72589    4.56612
      H1    -7.20969   12.25714    5.27834
       H    -7.59621    5.88859    7.50364
       O    -7.97710    6.69489    7.85414
      H1    -8.03094    6.46055    8.74947
       H    -9.71059    0.99386    2.60228
       O   -10.01345    1.93317    2.75052
      H1    -9.16783    2.34449    3.03545
       H    -5.96770    0.26854   12.48419
       O    -6.63389   -0.09925   11.87061
      H1    -6.60031    0.29580   11.00385
       H   -10.56329    2.71185   -0.01884
       O   -11.36574    2.52086    0.53180
      H1   -10.87281    2.18541    1.30572
       H    -4.83663    3.90100   -0.20115
       O    -3.99749    3.40331    0.10639
      H1    -3.24323    3.94968   -0.17453
       H    -1.34636    1.01251    3.01820
       O    -1.98919    0.33424    2.86762
      H1    -2.79034    0.86184    3.16321
       H     1.07815    8.39077    7.40516
       O     0.26042    8.54926    7.88639
      H1    -0.31927    7.91278    7.38632
       H    -8.02747   11.70548    6.73646
       O    -8.51654   12.49069    6.51760
      H1    -8.23753   13.10103    7.20845
       H   -10.03771    4.59491    4.24688
       O    -9.85522    4.47441    5.17955
      H1   -10.09161    5.39301    5.37392
       H    -3.25372    9.93281    8.56823
       O    -3.72190    9.14254    8.82074
      H1    -4.41139    8.96627    8.15573
       H    -8.88818    6.92630    0.16179
       O    -9.19284    7.57551   -0.48592
      H1    -8.38060    8.08844   -0.65687
       H   -12.22577    6.13810    5.31181
       O   -12.11971    5.99832    4.36334
      H1   -12.79690    5.31040    4.26196
       H    -5.51492    7.35225   11.91938
       O    -5.55030    6.43213   12.29120
      H1    -6.35406    6.07102   11.87215
       H    -6.97157   -0.75679    5.23939
       O    -6.00998   -0.89031    5.09259
      H1    -5.81763   -1.43104    5.89163
       H    -2.58093    8.11885    7.60607
       O    -2.04306    7.57250    6.94907
      H1    -2.05211    8.24024    6.18599
       H   -10.08616    7.87030    5.82303
       O   -10.35624    7.20306    6.44614
      H1    -9.65346    7.06817    7.11283
       H    -5.70391    0.68642    1.07577
       O    -6.55032    1.09885    1.02982
      H1    -7.04987    0.92676    1.79818
       H    -3.20741    0.62658    1.48744
       O    -3.83208    0.67564    0.73039
      H1    -3.85784    1.63272    0.43099
       H    -9.11538   -0.10513    6.10955
       O    -8.74261   -0.18872    5.25081
      H1    -9.27591   -0.89300    4.87009
       H    -3.64014    2.40349    9.04605
       O    -3.67257    1.43914    8.96629
      H1    -3.97164    1.42782    8.07111
       H    -6.31179    3.65463    1.75929
       O    -5.88156    4.47977    1.87099
      H1    -4.96534    4.26537    1.54304
       H    -4.90305    1.20791    4.81027
       O    -4.52078    1.44093    3.90875
      H1    -4.37562    2.41397    3.96947

