180
frame 4 | Written by MDAnalysis XYZWriter (release 2.4.3)
       H    -2.33614   -3.85766    0.08684
       O    -2.74252   -4.70007    0.00221
      H1    -3.59685   -4.65235    0.47423
       H    -0.99031   -0.14431   -0.41804
       O    -1.44048   -0.77755    0.11921
      H1    -2.35405   -0.45254    0.10558
       H    -3.84989   -6.13056    4.47324
       O    -4.43636   -5.34097    4.45578
      H1    -5.04650   -5.53020    5.21384
       H   -12.63181   -7.62292   -1.73508
       O   -12.18029   -8.46836   -1.62394
      H1   -11.35306   -8.36880   -2.14120
       H    -7.14442   -8.93060   -7.04850
       O    -7.59618   -8.83833   -6.19126
      H1    -7.42445   -7.89973   -6.06795
       H   -10.93648   -3.38351   -5.20193
       O   -11.54142   -3.76911   -5.85156
      H1   -11.10940   -4.61681   -6.01174
       H    -3.84465   -7.32715   -3.27522
       O    -3.04154   -6.96659   -3.67479
      H1    -3.12258   -6.03082   -3.33622
       H     0.01767   -3.02066   -6.65472
       O     0.65437   -3.11530   -5.90782
      H1     1.02948   -4.03578   -6.20085
       H    -2.58493    0.29762   -4.62419
       O    -2.30138   -0.28094   -3.90466
      H1    -1.40651    0.08159   -3.77180
       H    -6.31199  -11.85079    0.22435
       O    -5.58521  -11.81690   -0.35967
      H1    -5.38137  -10.86866   -0.31696
       H    -8.67726   -9.70979    1.71459
       O    -9.19396  -10.10526    2.49839
      H1    -9.11806   -9.33988    3.13375
       H    -1.05166   -5.90898   -1.16978
       O    -0.26138   -5.47228   -1.54220
      H1    -0.35508   -4.48072   -1.33090
       H    -6.20950   -6.40067   -2.87920
       O    -5.55526   -6.29236   -2.15043
      H1    -5.09637   -5.41514   -2.37463
       H    -7.81415  -10.30930   -1.92101
       O    -7.10272  -10.75145   -2.34968
      H1    -6.67969  -11.18668   -1.59635
       H    -1.76747  -12.62266   -2.39928
       O    -1.81551  -12.46354   -3.33964
      H1    -2.41153  -11.72717   -3.48706
       H    -3.66781   -0.66937   -2.33672
       O    -4.06884   -0.80344   -1.48725
      H1    -4.25950    0.07168   -1.11833
       H     1.68283   -5.41846   -2.69132
       O     2.30274   -4.70383   -2.91971
      H1     2.69737   -4.57489   -2.09103
       H   -10.68380   -6.37294   -7.41851
       O   -10.50855   -6.06023   -6.51196
      H1   -10.43467   -6.86681   -6.06331
       H    -5.87454   -1.54346    3.35038
       O    -5.78921   -1.98723    2.49726
      H1    -6.65373   -1.95041    2.06705
       H    -3.03408   -4.64294  -10.13593
       O    -2.75228   -5.33421   -9.55170
      H1    -2.87262   -5.03754   -8.61552
       H    -7.04147   -6.36858   -1.09758
       O    -7.96718   -6.27631   -0.80175
      H1    -7.85358   -6.01129    0.12107
       H    -9.13583   -1.22662    2.19386
       O    -9.21171   -0.56215    1.51482
      H1    -8.41198   -0.87416    1.06904
       H    -5.14657   -3.71399    2.06187
       O    -4.91350   -4.65191    1.81570
      H1    -4.88971   -5.02194    2.73136
       H    -2.29772   -7.24917   -1.97470
       O    -2.26620   -7.28808   -1.00205
      H1    -2.83205   -6.48216   -0.66455
       H    -7.79968   -3.39646    0.51893
       O    -7.48833   -2.47748    0.40000
      H1    -6.97973   -2.48116   -0.38353
       H   -10.37069   -1.87318   -3.41134
       O    -9.93530   -1.56826   -4.21859
      H1    -9.15088   -1.17672   -3.76773
       H     0.82925   -8.39561   -1.92881
       O     1.05901   -8.25629   -2.84453
      H1     1.61245   -9.03854   -3.04706
       H     0.12586   -6.97729   -3.98909
       O    -0.36401   -6.65565   -4.78192
      H1    -1.26014   -6.59490   -4.40595
       H    -2.56373   -1.95320   -4.62349
       O    -3.16106   -2.59773   -5.10781
      H1    -3.95426   -2.00806   -5.32804
       H    -7.35867    0.33541   -2.65787
       O    -7.62769   -0.37537   -3.23548
      H1    -7.07150   -1.08754   -2.88822
       H    -9.58790   -7.58568   -2.36282
       O    -9.67324   -8.55944   -2.47926
      H1    -9.81993   -8.53458   -3.48371
       H    -0.06147   -9.01981   -6.66980
       O     0.01199   -9.32383   -5.75882
      H1    -0.28480   -8.48962   -5.34125
       H    -4.75101   -8.20080   -7.84360
       O    -5.42827   -8.89534   -8.05873
      H1    -5.92146   -8.51039   -8.80959
       H   -11.48034   -8.74076   -5.09559
       O   -10.58541   -8.33490   -5.26452
      H1   -10.09248   -9.01660   -5.75775
       H    -8.25866   -5.17352   -9.34633
       O    -8.55700   -5.43375   -8.45314
      H1    -8.31183   -6.38219   -8.40009
       H   -10.51432   -4.56092   -2.50313
       O    -9.67404   -5.10972   -2.59876
      H1    -9.41987   -5.08947   -1.67949
       H    -7.13809   -4.34338    1.73256
       O    -7.87513   -4.92728    1.62287
      H1    -8.22715   -4.91927    2.51383
       H    -0.88866   -3.63596    2.08334
       O    -1.25611   -3.94551    2.93591
      H1    -2.15101   -4.02408    2.64724
       H    -6.47437   -5.03624   -7.49593
       O    -5.57892   -5.17034   -7.77057
      H1    -5.32178   -5.92136   -7.20475
       H    -5.20190   -2.52014   -2.11135
       O    -6.14016   -2.58029   -2.19856
      H1    -6.34669   -3.49661   -2.47928
       H   -10.53168   -8.54976    0.93612
       O   -10.74650   -7.66774    0.67334
      H1   -11.33296   -7.78591   -0.09157
       H    -8.09508   -8.16130   -0.01762
       O    -7.70983   -8.96035    0.43693
      H1    -6.74281   -8.90569    0.38361
       H    -2.56680   -3.75003   -6.51514
       O    -2.28856   -4.57601   -6.95127
      H1    -1.31481   -4.44753   -6.89268
       H    -3.53721   -5.97306   -6.33392
       O    -4.07942   -6.78463   -6.16990
      H1    -3.92086   -7.01999   -5.25767
       H    -3.15927   -3.68646   -2.30279
       O    -3.56330   -4.29849   -2.93481
      H1    -3.44615   -3.77664   -3.72871
       H     1.42039   -4.29281    0.46550
       O     0.67711   -3.77106    0.83128
      H1     1.12485   -2.91739    0.85025
       H    -5.52231  -10.60895   -5.03599
       O    -4.69207  -10.32441   -5.41217
      H1    -4.93648   -9.52680   -5.89254
       H     1.33180   -3.29932   -2.95600
       O     1.09999   -2.40931   -3.31037
      H1     0.84538   -2.65891   -4.20971
       H     1.54675   -6.49242   -0.37591
       O     2.37908   -6.13078   -0.03110
      H1     3.03214   -6.42086   -0.65987
       H    -5.70262  -10.00225   -2.74062
       O    -4.73159   -9.94739   -2.65609
      H1    -4.56810  -10.10169   -3.59403
       H    -8.69549   -2.66938   -5.74657
       O    -8.14546   -3.41856   -6.04996
      H1    -8.68290   -3.82344   -6.73044
       H    -5.70391    0.68642    1.07577
       O    -6.55032    1.09885    1.02982
      H1    -7.04987    0.92676    1.79818
       H    -8.38989   -5.45231   -3.60701
       O    -7.53067   -5.53650   -4.13958
      H1    -7.75037   -4.78630   -4.73038
       H    -4.75435   -8.63919   -1.08339
       O    -4.98940   -8.69266   -0.13579
      H1    -4.29985   -8.20623    0.28893
       H    -3.20741    0.62658    1.48744
       O    -3.83208    0.67564    0.73039
      H1    -3.85784    1.63272    0.43099
       H    -0.15486   -7.21596    1.90817
       O    -0.49990   -6.76044    2.66142
      H1    -0.80399   -5.91061    2.30429
       H    -5.89526   -0.72035   -5.83032
       O    -6.00314    0.19211   -5.36353
      H1    -6.62955   -0.05434   -4.63336
       H    -5.30564   -2.81226   -7.40626
       O    -5.89195   -2.14788   -6.95263
      H1    -6.55567   -2.78698   -6.56949
       H     0.42876   -9.21101    0.26797
       O     0.38777   -8.34154   -0.15744
      H1    -0.53212   -8.15699   -0.20695
       H    -0.76230   -2.42950   -2.42996
       O    -1.49097   -2.63908   -1.85701
      H1    -1.47365   -1.86436   -1.26237

