180
frame 6 | Written by MDAnalysis XYZWriter (release 2.4.3)
       H    10.61491   11.50657  -15.74918
       O    10.68732   12.44382  -15.44057
      H1    11.12788   12.27564  -14.64293
       H     9.68284   10.38215   -9.90002
       O     8.80928   10.16430  -10.23582
      H1     8.35152    9.72001   -9.48132
       H     6.46716   12.37319  -11.39152
       O     6.27510   12.95986  -10.60219
      H1     5.51373   13.49236  -10.86304
       H    15.88254   10.66845   -7.13213
       O    15.83220   11.14502   -7.96777
      H1    14.98848   11.59231   -7.86535
       H     2.76558   10.70483  -12.28770
       O     3.69165   10.98041  -12.18024
      H1     3.74156   10.82869  -11.22394
       H     9.08598   15.12544   -5.09296
       O     9.93177   15.42402   -4.85138
      H1     9.71310   15.88544   -4.07376
       H    14.32477   14.80422  -13.59131
       O    14.14705   15.36463  -12.82799
      H1    13.15430   15.38345  -12.86811
       H     5.95790    7.98350   -5.47311
       O     5.08754    7.54164   -5.37336
      H1     4.52008    8.23168   -5.74904
       H    12.37796   18.38695   -6.50650
       O    12.88077   18.38496   -5.67071
      H1    12.76200   17.53839   -5.27284
       H     6.12418   12.13281   -2.11543
       O     6.97918   11.77218   -2.11101
      H1     7.07237   11.69874   -3.02401
       H    11.16132   16.57236  -12.13425
       O    11.10360   16.64657  -11.16220
      H1    10.69931   17.52779  -11.15996
       H    12.10077    6.92722   -7.67439
       O    12.95120    7.14101   -8.06843
      H1    13.55332    6.51847   -7.64036
       H    11.48278    7.03869   -5.27130
       O    10.72384    6.54473   -5.63761
      H1    10.93306    5.62826   -5.47453
       H     8.22183   13.02068  -14.28749
       O     7.88011   12.73552  -15.17210
      H1     8.65145   12.40620  -15.65442
       H    12.49104   18.04209  -10.39181
       O    13.04365   18.74198  -10.15528
      H1    13.77234   18.28215   -9.64237
       H     7.98741   12.41367   -8.34478
       O     8.91676   12.64242   -8.08686
      H1     9.25763   13.32585   -8.70249
       H     6.99267    8.20669   -7.71648
       O     7.45684    8.14637   -8.58675
      H1     7.04810    7.45204   -9.07811
       H     9.72633   15.98109   -9.20106
       O    10.32101   15.35897   -8.76022
      H1    10.24257   15.63004   -7.89022
       H    14.07966   11.03166   -3.57875
       O    14.07673   10.08144   -3.41617
      H1    14.22710   10.06456   -2.48276
       H    13.41659    8.95158   -5.77331
       O    13.40314    9.30209   -6.63259
      H1    13.14087    8.60930   -7.21902
       H    11.24678   14.08616   -3.98030
       O    11.64313   13.21607   -3.75656
      H1    10.89509   12.67437   -4.11453
       H     6.02900   11.27731   -8.26560
       O     6.60322   11.25848   -7.49093
      H1     6.71222   10.31492   -7.27802
       H     4.69842   17.70836   -6.46684
       O     3.69966   17.67428   -6.35381
      H1     3.42779   17.01881   -7.02312
       H    11.24179   15.29801  -14.61367
       O    11.31316   15.84869  -13.79800
      H1    11.50119   16.75983  -14.19885
       H     4.51028   11.78203   -9.42390
       O     4.83512   10.92379   -9.69044
      H1     5.69361   11.08337  -10.12327
       H     5.35719   11.61945   -4.22003
       O     6.19008   11.41239   -4.66011
      H1     5.96617   11.57122   -5.60764
       H    15.18207   12.23384  -11.65452
       O    14.40798   12.47588  -12.19033
      H1    14.55195   13.39330  -12.17244
       H     9.12776   12.51807   -0.01715
       O     9.80153   12.74481   -0.63886
      H1     9.49801   12.35077   -1.44170
       H     9.52445   11.32657   -5.66951
       O     9.49615   11.79296   -4.79246
      H1     8.95140   12.50754   -5.03298
       H    14.23497    8.05086  -11.05187
       O    14.75367    8.60066  -10.42719
      H1    14.46183    9.45804  -10.71557
       H     5.43739   14.98072   -2.85962
       O     6.36373   15.07948   -2.52080
      H1     6.54296   14.12803   -2.28884
       H     7.11521    7.87394  -11.98104
       O     7.75599    8.47530  -12.32074
      H1     8.12219    8.87495  -11.50791
       H    10.10344    9.09163   -5.11947
       O     9.82746    8.56550   -4.39304
      H1     9.95733    7.67253   -4.82280
       H     8.18120    8.95322   -4.82985
       O     7.38212    9.03026   -5.30836
      H1     7.11405    9.92079   -4.96074
       H    10.36963   11.62603   -8.52137
       O    11.10333   11.33038   -9.07143
      H1    11.13224   12.20075   -9.55205
       H     9.33776   17.77704   -6.97521
       O    10.19663   17.49751   -6.65220
      H1    10.01523   16.91948   -5.86487
       H     6.40892   13.99110   -9.03739
       O     6.25866   14.76925   -8.43633
      H1     6.29353   14.37190   -7.55468
       H    11.29961   14.27301  -10.65553
       O    10.88821   13.40844  -10.86916
      H1    10.21169   13.76573  -11.49154
       H     9.35408   14.92376  -13.59222
       O     8.92188   14.20743  -13.06201
      H1     8.03992   14.58767  -12.92647
       H     8.88787    7.23493   -8.10192
       O     9.81172    6.82866   -8.11722
      H1    10.02508    6.85560   -7.17200
       H    11.03510   18.81109   -7.62162
       O    11.61921   19.60447   -7.82459
      H1    12.23954   19.16498   -8.50680
       H     7.86499   13.24811   -6.67382
       O     7.70100   13.74196   -5.79276
      H1     7.02533   13.23074   -5.31788
       H     6.26686   14.44149  -13.49285
       O     6.14372   15.34013  -13.64005
      H1     5.79787   15.70673  -12.84326
       H    13.39950    9.48996  -13.12756
       O    12.52820    9.35010  -12.70428
      H1    12.12475   10.27686  -12.87769
       H    14.19261   14.00766   -5.63387
       O    14.27969   14.90260   -6.00406
      H1    13.54916   15.08385   -6.61001
       H     7.97538   18.56285   -9.25134
       O     8.93762   18.50180   -9.07582
      H1     9.09600   19.42598   -9.25606
       H    14.94857   15.08058   -3.03541
       O    14.14960   15.51499   -3.36929
      H1    14.24368   15.47260   -4.38252
       H    12.18076   15.85476   -8.44396
       O    12.90315   16.18480   -7.91564
      H1    13.60082   16.20940   -8.59940
       H    12.71267   11.87557   -8.05603
       O    13.34986   12.01436   -7.35762
      H1    13.40827   11.11831   -7.00476
       H     2.80661   13.56078  -12.37026
       O     3.78375   13.48488  -12.21016
      H1     3.93652   12.51667  -12.22911
       H     3.44844   12.90471   -7.97216
       O     3.48821   12.97879   -8.91834
      H1     3.72322   13.86684   -9.02570
       H    11.76442   10.09665   -6.42336
       O    10.79794   10.21267   -6.59727
      H1    10.81181   10.18391   -7.56239
       H    13.08114   12.89731   -4.48513
       O    13.95833   12.57095   -4.82899
      H1    13.61842   12.34273   -5.78417
       H     3.13024   12.77488   -5.62767
       O     3.93704   12.53097   -6.17423
      H1     3.65876   11.59683   -6.38808
       H     5.59236   18.67890   -9.20628
       O     5.99592   17.90554   -8.87237
      H1     5.62030   17.14566   -9.39115
       H     6.33046   19.19551   -5.97404
       O     6.20134   18.30321   -5.52599
      H1     5.47115   18.48683   -4.85872
       H     3.78996    9.19775   -7.61725
       O     3.66450    9.23981   -6.66343
      H1     2.78411    8.84681   -6.46261
       H     9.37783   16.34262   -1.84512
       O     9.78000   16.77317   -2.64694
      H1    10.68922   16.78971   -2.29637
       H     5.60219   11.15709  -13.24272
       O     6.46096   11.47616  -12.87893
      H1     7.14657   10.87782  -13.32974
       H    12.72311   11.99202  -12.55113
       O    11.85530   11.89994  -12.89041
      H1    11.27932   12.28826  -12.23289

