180
frame 1 | Written by MDAnalysis XYZWriter (release 2.4.3)
       H     6.47399   13.08947   15.16967
       O     6.31113   12.25839   14.73551
      H1     7.19143   11.93916   14.46692
       H    15.00040   10.05431   18.15293
       O    15.42342   10.63947   18.71811
      H1    16.11109   11.09599   18.16265
       H    10.35936   14.58320   13.58306
       O     9.64507   14.25895   12.96015
      H1     8.82221   14.74185   13.24492
       H    10.54058   11.03439   11.98060
       O     9.79660   10.61008   12.44532
      H1    10.12010    9.68974   12.49047
       H    12.69851   14.56424   17.86307
       O    13.58533   14.54567   18.12264
      H1    13.65374   15.46975   18.50718
       H    14.53312    6.78975   11.93812
       O    14.59933    5.96698   11.48168
      H1    13.83177    5.52905   11.83622
       H     7.73728   11.18758   17.08346
       O     7.82684   11.51787   17.98918
      H1     7.34363   10.93647   18.57370
       H    13.57369    1.07886   16.03213
       O    12.66502    1.12052   15.62525
      H1    12.13737    1.24602   16.44577
       H    10.58730    7.50403   14.49755
       O    10.04998    7.81429   13.69526
      H1    10.70119    7.55645   13.02475
       H    18.02408    6.01645   13.00388
       O    17.38830    6.21076   13.68664
      H1    17.27448    5.38489   14.16124
       H     9.72945   17.48969   17.54253
       O    10.08898   16.76095   18.11505
      H1    11.07164   16.81272   17.95078
       H    18.13078   12.07627   12.07001
       O    18.77709   11.84098   12.79270
      H1    19.25517   11.07955   12.37559
       H    15.09431    3.35937   17.41048
       O    15.61901    4.14214   17.48594
      H1    15.08326    4.75601   16.96065
       H    13.87135    8.34810   17.75912
       O    14.40011    8.80589   17.15387
      H1    13.79497    9.36386   16.69472
       H    15.86731    7.52421   15.79749
       O    15.74618    7.80016   14.86313
      H1    16.41647    7.10693   14.49146
       H    14.15651   12.42193   11.29687
       O    14.32486   12.59974   10.36948
      H1    15.25200   12.44817   10.18481
       H     9.57354   11.47240   14.04691
       O     9.18991   12.14155   14.65795
      H1     9.42807   12.97653   14.20834
       H    13.85027    6.97517   16.19796
       O    13.94742    6.05612   16.49673
      H1    13.28709    5.99921   17.16995
       H    13.28848   10.16258    9.67787
       O    12.77981    9.79358   10.47300
      H1    12.12770    9.23628   10.02045
       H    18.03874    6.17447   17.77359
       O    18.71813    5.49358   17.71153
      H1    18.33249    4.77535   18.21239
       H    11.41698   14.48045   15.46268
       O    11.59844   15.02377   14.67003
      H1    11.35068   15.92358   14.98622
       H    20.04382    6.85872   14.67038
       O    19.62360    7.72645   14.63461
      H1    18.74826    7.46992   14.35026
       H     7.33498    8.34832   12.65539
       O     7.40829    7.39767   12.57063
      H1     8.35092    7.35805   12.85382
       H     9.52259    4.75753   11.44701
       O    10.49821    4.59147   11.48131
      H1    10.55575    3.63426   11.29591
       H    12.47798    6.95855    9.58898
       O    13.11895    6.38358    9.10640
      H1    13.80847    6.06911    9.71754
       H    17.69053   15.28211   13.69212
       O    17.08100   16.02478   13.45313
      H1    16.18164   15.66340   13.74377
       H    17.88110   16.36631   17.99858
       O    18.62189   16.05752   17.44994
      H1    19.37029   16.11342   18.03150
       H    14.32992    8.26805   13.58529
       O    13.65273    7.86834   13.04534
      H1    13.33920    8.55663   12.47744
       H    17.27002    0.91757   16.60291
       O    17.47542    0.70290   17.51303
      H1    18.33115    0.26355   17.56540
       H    13.65548   17.47121   18.67214
       O    14.14769   17.06651   19.43362
      H1    15.10848   17.09179   19.27145
       H    14.00568    2.79949   12.79679
       O    14.02546    2.56420   11.81449
      H1    14.81065    2.97479   11.50920
       H    10.10000   11.45778   16.13584
       O    10.69572   11.26542   16.80911
      H1    10.39997   10.47047   17.17547
       H    18.03189   13.86128   15.43546
       O    17.44191   13.77252   16.24304
      H1    17.82115   14.47466   16.80615
       H    15.38183    1.11481   17.65950
       O    14.53057    1.56468   17.80882
      H1    14.34273    1.25459   18.69687
       H    18.49865   11.27225   18.07859
       O    17.96700   12.06151   18.32279
      H1    18.03717   12.44022   17.43732
       H    14.26143   14.24805   10.09870
       O    14.31220   15.22857   10.24356
      H1    13.96233   15.25099   11.13663
       H    13.63037   11.62041   15.80728
       O    13.15961   10.77189   15.71672
      H1    12.35414   11.07316   16.21275
       H    17.07474    2.27795   14.71010
       O    16.93594    1.29994   14.75931
      H1    17.28705    0.93185   13.95474
       H    13.30671   12.73845   18.75987
       O    12.98842   11.87336   18.89726
      H1    13.79887   11.37502   18.98013
       H    10.45914   14.65764   17.41143
       O    11.11520   13.96962   17.14065
      H1    10.69568   13.09119   17.21589
       H    17.42081   13.46734   10.51964
       O    17.22602   12.55269   10.32759
      H1    17.15593   12.53776    9.33571
       H     8.59941    8.35055   14.60002
       O     7.99448    8.72307   15.29913
      H1     7.15605    8.47620   14.94781
       H    16.15016    9.98991   14.62247
       O    16.22968   10.97870   14.64742
      H1    17.11324   11.13662   14.32152
       H    10.05019    4.14755   15.15355
       O    10.38911    4.98791   15.44119
      H1     9.54848    5.41735   15.57061
       H    11.33650    5.24210   18.64615
       O    11.58611    4.62315   17.98628
      H1    11.20182    4.97246   17.18502
       H    14.11619    4.37963   13.59103
       O    14.61485    3.68205   14.14891
      H1    13.93711    3.49624   14.82585
       H    10.77394    6.22772   11.06126
       O    11.13889    7.14298   10.94373
      H1    10.36758    7.54255   10.48555
       H    12.83240   13.62843   13.50689
       O    13.08318   12.77735   13.10625
      H1    13.21679   12.25164   13.87333
       H    18.79980    5.56601   10.97302
       O    17.87218    5.91141   10.86433
      H1    17.31823    5.10918   10.88401
       H    19.32048   13.79500   13.34397
       O    19.08618   14.43137   14.01300
      H1    19.78700   15.07418   14.09863
       H    14.34120   13.75847   16.70785
       O    14.30228   13.26358   15.84728
      H1    15.22603   12.93317   15.78446
       H    13.37838   15.46669   13.79166
       O    14.30787   15.19259   13.60846
      H1    14.41726   14.40504   14.21231
       H    19.04348    3.35260   12.99765
       O    19.01943    3.09787   12.06664
      H1    18.87618    2.13120   12.13503
       H     9.52025    1.59203   18.38829
       O     9.32522    0.90658   17.74670
      H1     9.49940    0.04395   18.24339
       H     7.10910    7.05812   16.93832
       O     7.83863    6.63033   17.43721
      H1     7.39186    5.75894   17.60360
       H    11.60614   12.80360   10.30449
       O    11.10232   12.01970   10.44758
      H1    11.75087   11.34146   10.45701
       H     7.86308   14.51511   16.94440
       O     7.58650   14.55817   17.84654
      H1     7.81830   13.70801   18.20790
       H    10.41398    8.15708   18.32876
       O     9.95943    8.64337   17.64073
      H1     9.09477    8.21030   17.46232
       H    16.22740    3.68863   14.57175
       O    17.14813    3.91081   14.79757
      H1    17.03347    3.98228   15.74056
       H    18.03573    9.04899   10.75277
       O    17.71526    8.71435   11.63586
      H1    17.51113    7.76436   11.52625

