180
frame 5 | Written by MDAnalysis XYZWriter (release 2.4.3)
       H     6.31943   -1.26422    7.06201
       O     5.84422   -2.13139    7.02836
      H1     5.74780   -2.28034    7.96345
       H     0.77477   -1.13264    6.07495
       O     0.46741   -0.88217    5.20292
      H1    -0.44283   -1.17507    5.21730
       H    -0.46740    5.92611    6.83475
       O     0.00925    5.12859    7.11763
      H1     0.98895    5.37971    6.89286
       H     6.62692    2.93850   12.32311
       O     6.35737    2.21285   11.70398
      H1     5.39634    2.25940   11.67097
       H     1.58104    1.44014    7.30676
       O     1.54105    1.40554    8.28259
      H1     1.60052    2.33797    8.56584
       H     8.20139    1.93436   11.03332
       O     9.14968    2.08098   10.78263
      H1     9.13684    1.44834   10.05978
       H     8.57987    8.37150    7.35239
       O     9.35581    7.85034    7.15958
      H1     9.70325    7.57188    7.98459
       H     6.55470    2.65223    4.32606
       O     6.73418    1.94722    3.67853
      H1     7.56468    1.58470    4.06073
       H     3.96260    5.59821   10.23187
       O     4.89656    5.21403   10.13809
      H1     4.68467    4.74486    9.32815
       H     4.17138    9.13375   10.14552
       O     3.55964    8.79922   10.75311
      H1     4.14552    8.40135   11.46226
       H    -0.27401    3.88023    9.33107
       O    -1.03349    3.87959    9.93476
      H1    -0.93301    4.73576   10.34004
       H     1.39253    4.49193    8.21007
       O     2.06858    4.01152    8.65091
      H1     1.98341    4.35222    9.59470
       H     7.05942    0.54493    9.95557
       O     7.32179   -0.16591   10.57350
      H1     6.85023    0.12969   11.35922
       H     4.90679    2.59702    7.78119
       O     4.67111    3.52626    7.90664
      H1     3.74534    3.62274    8.18701
       H     0.02052   -0.58924    7.75870
       O    -0.90507   -0.74589    7.58961
      H1    -1.35269   -0.52593    8.40139
       H     1.09025    0.88654   10.91675
       O     1.62992    0.13216   10.81686
      H1     1.89112    0.22230    9.85874
       H     1.07346    0.66395    5.44368
       O     1.47051    1.52857    5.65424
      H1     2.43106    1.33583    5.59124
       H    11.38370   -0.91807    5.66370
       O    10.60171   -0.42691    6.01039
      H1     9.89795   -0.36145    5.38462
       H     1.81333    6.30792   11.54707
       O     2.09257    5.56601   11.00928
      H1     1.89888    4.84803   11.56267
       H     3.45546   -3.01488    3.91919
       O     2.79532   -2.33851    4.02650
      H1     2.01913   -2.90454    4.22630
       H     6.32519    5.39200    0.63262
       O     6.42742    4.97450    1.55004
      H1     5.48472    4.73067    1.80507
       H     5.83146   -1.76894    5.14083
       O     6.28167   -1.68398    4.25942
      H1     7.00512   -2.35008    4.36486
       H    10.84323    3.83585    5.56008
       O    11.30161    4.17831    4.76938
      H1    11.80795    3.35546    4.50606
       H     9.68446    5.44204    7.86209
       O     9.87880    4.69714    7.20142
      H1    10.63384    4.28090    7.56233
       H     7.38441    7.59735    3.19526
       O     6.62445    6.93538    3.49997
      H1     6.60702    6.38319    2.68617
       H     3.24329    4.24972    2.28613
       O     3.87891    4.95392    2.40918
      H1     3.81369    4.96371    3.39342
       H    -1.84047    2.29989    7.62535
       O    -1.91109    2.79965    6.81068
      H1    -1.05394    3.25434    6.77878
       H     8.67031    3.69015    0.85656
       O     8.26320    3.71265    0.00467
      H1     7.30021    3.48404    0.24070
       H     5.25944    1.23596    6.26973
       O     5.76580    1.00856    7.11622
      H1     6.56965    1.53658    7.01597
       H     1.32933    2.69887    4.16362
       O     1.30999    3.46792    3.58954
      H1     1.66502    3.13594    2.73531
       H     3.06474    7.42374    0.39789
       O     2.61994    7.21821    1.25255
      H1     3.13330    6.46482    1.59371
       H    -0.65895    4.42846    2.79241
       O    -1.46010    4.96758    2.58178
      H1    -1.99771    4.77070    3.41367
       H     0.02999   -0.12970    1.57848
       O     0.86354   -0.10275    2.09736
      H1     0.49004   -0.53514    2.85822
       H     1.60288    4.89289   -0.13886
       O     1.11951    5.70061   -0.41951
      H1     1.35706    6.43121    0.13687
       H     1.82189    5.14307    5.07616
       O     2.34807    5.49832    5.79949
      H1     2.08455    6.43851    5.82838
       H     2.55701    2.94417    0.22799
       O     2.00392    2.93429    1.01069
      H1     1.23454    2.43413    0.64647
       H    10.84034    0.57640    8.78300
       O     9.87813    0.42968    8.45059
      H1    10.20234   -0.06856    7.64599
       H     3.97724   10.36647    5.34152
       O     4.87716   10.65342    5.59124
      H1     5.52589   10.02927    5.21660
       H     3.90689    1.00552   13.30964
       O     3.75060    1.34030   12.40890
      H1     3.25429    0.61367   12.02487
       H     5.03881    8.62626    2.46328
       O     4.48976    8.99392    1.74218
      H1     3.71652    8.38962    1.73677
       H     0.95251    8.50390    7.59878
       O     0.24203    8.66481    8.27432
      H1    -0.51649    8.24533    7.80467
       H     3.20318   -2.13304    7.07538
       O     2.33051   -1.74408    6.92130
      H1     2.25957   -1.81767    5.89639
       H     5.20639    8.81013    7.07843
       O     4.64793    8.12357    7.54981
      H1     5.01631    7.36324    7.07844
       H    -2.35335    7.09569    6.84170
       O    -1.35775    7.23357    6.62928
      H1    -1.27402    7.98846    6.02573
       H     3.30439   -1.38685    2.61717
       O     3.44895   -0.63682    2.02157
      H1     2.51504   -0.24998    2.06643
       H     9.91036    3.91078    3.33723
       O     9.28579    3.24683    2.84986
      H1     8.47208    3.25179    3.30846
       H    10.05195    6.19491   10.49086
       O     9.61513    6.84392    9.86752
      H1     8.80928    6.35946    9.68497
       H     7.64938   -0.70933    4.14586
       O     8.46069   -0.16733    3.99629
      H1     8.58133   -0.11555    3.06723
       H     6.17990    8.44612    8.60088
       O     6.91461    8.17076    9.13953
      H1     6.81599    7.20883    9.20367
       H     2.80660    8.35644    6.63555
       O     1.91969    8.12475    6.14808
      H1     1.85735    8.78078    5.43757
       H     5.18242    7.19687    4.42335
       O     4.29007    7.47774    4.71189
      H1     3.84113    6.63682    4.80170
       H     6.39434    1.11591    1.68637
       O     6.54923    0.55723    0.91662
      H1     7.45735    0.72176    0.59528
       H     4.62284    3.77351    5.98015
       O     5.07412    3.86126    5.09782
      H1     5.92691    4.33616    5.38156
       H     7.45098    4.03907    9.04488
       O     7.42197    4.98331    9.21889
      H1     6.49374    5.12131    9.46010
       H     2.40777    2.52947   12.45745
       O     1.73872    3.27052   12.54497
      H1     2.02571    3.66053   13.36808
       H     2.49483    9.74323    3.50841
       O     2.17617   10.25005    4.28713
      H1     1.51165   10.83209    3.89315
       H     7.82759    5.46975    6.13625
       O     7.42404    5.02254    5.38408
      H1     7.33740    5.68817    4.71348
       H     5.27765   -2.57038   10.81296
       O     5.51271   -2.18794    9.90984
      H1     5.98838   -1.31454   10.07338
       H     5.03986    1.20267    4.12588
       O     4.33290    0.76813    4.61309
      H1     3.86148    0.45954    3.79917
       H     8.72186    1.85787    7.98502
       O     8.17565    2.60611    7.73230
      H1     8.84789    3.27506    7.69042

