180
frame 7 | Written by MDAnalysis XYZWriter (release 2.4.3)
       H   -19.43119  -10.56333  -13.85621
       O   -19.06625   -9.79537  -14.40220
      H1   -18.47894   -9.42433  -13.71795
       H   -10.56282   -6.48705  -18.76082
       O   -10.60428   -7.24649  -18.19864
      H1   -10.98808   -7.86652  -18.80449
       H   -16.51003    0.20741  -18.14588
       O   -16.99789    0.91102  -18.59846
      H1   -17.77398    0.47647  -18.88342
       H   -12.02639  -14.62257  -13.68843
       O   -11.49936  -15.05631  -14.40633
      H1   -12.16887  -15.72010  -14.79187
       H   -16.56285   -3.23757  -15.31892
       O   -17.24781   -3.18271  -15.95390
      H1   -18.02618   -3.10076  -15.35244
       H   -12.05108   -9.83835  -10.24409
       O   -12.43882   -9.37999  -11.00762
      H1   -12.81825  -10.09111  -11.51896
       H   -12.86626   -1.47726  -16.07857
       O   -13.08989   -0.52647  -16.05982
      H1   -13.77218   -0.51331  -15.41221
       H   -19.90321   -1.95022  -14.17319
       O   -19.04867   -2.40119  -13.99333
      H1   -18.55894   -1.67374  -13.61102
       H   -10.38203   -6.29223  -14.24367
       O   -10.70454   -7.10296  -13.86032
      H1   -11.25117   -7.40931  -14.57577
       H   -12.02000   -6.90820  -11.18057
       O   -11.66507   -6.02679  -10.86216
      H1   -12.36956   -5.66867  -10.37585
       H   -20.05075   -2.42168  -10.66356
       O   -19.59497   -1.68198  -10.19195
      H1   -18.69565   -1.71307  -10.55031
       H   -15.56612   -2.73158  -18.55068
       O   -16.04178   -3.57850  -18.81000
      H1   -15.77161   -4.19870  -18.13503
       H   -11.18456  -10.42127  -19.12748
       O   -12.00702  -10.20225  -19.62136
      H1   -12.64734  -10.17879  -18.88875
       H   -17.04552  -16.45385  -18.76182
       O   -17.39905  -15.62983  -18.32743
      H1   -18.05680  -15.40694  -19.03564
       H   -17.04627   -1.48149  -11.84632
       O   -17.72350   -0.87241  -12.23840
      H1   -17.35456   -0.06729  -11.89183
       H   -19.94243  -14.00978  -10.49905
       O   -19.89424  -13.40609   -9.77028
      H1   -18.94270  -13.27586   -9.56018
       H   -17.94336   -7.30327   -8.62560
       O   -18.03520   -7.81239   -9.44170
      H1   -17.22780   -8.31215   -9.40758
       H   -18.66320   -7.73888  -17.31158
       O   -19.45433   -8.09432  -16.87615
      H1   -19.09937   -8.67116  -16.18405
       H   -12.09613   -3.72128  -11.95142
       O   -12.46661   -3.85373  -12.82684
      H1   -12.38339   -4.82090  -12.78577
       H   -17.39899   -5.61306   -7.42235
       O   -17.95459   -6.28507   -7.05746
      H1   -18.82627   -5.92568   -7.27964
       H   -16.76568  -13.00170  -13.40748
       O   -16.56005  -13.22140  -12.45639
      H1   -15.60119  -13.39032  -12.50238
       H   -13.85438   -0.20770  -19.40915
       O   -14.49767   -0.75723  -18.88768
      H1   -14.13486   -0.69188  -18.02112
       H   -15.56382   -2.23215  -10.66092
       O   -16.30956   -2.74745  -10.83710
      H1   -16.45061   -3.16733   -9.98459
       H   -19.28631   -3.61002  -12.48026
       O   -19.23191   -4.25793  -11.71286
      H1   -18.39006   -4.69323  -11.92301
       H   -16.98050  -12.65847  -15.55556
       O   -16.25213  -13.16939  -15.18609
      H1   -15.93555  -13.52361  -15.99841
       H   -14.22160  -12.31215  -15.09140
       O   -13.36121  -11.87404  -15.18203
      H1   -13.28771  -11.68690  -14.23683
       H   -10.46545  -12.10549  -11.77622
       O   -10.96326  -11.57595  -12.45765
      H1   -11.22159  -10.76971  -12.02773
       H   -16.34455   -8.54243  -11.86524
       O   -16.58153   -7.60839  -12.13132
      H1   -17.06245   -7.34429  -11.33723
       H   -14.98241   -9.40411   -9.54646
       O   -15.63758   -9.08148   -8.94687
      H1   -15.08732   -8.75072   -8.23534
       H   -13.96091  -12.20964  -11.50009
       O   -13.83795  -11.56470  -12.29310
      H1   -14.58122  -10.95201  -12.11383
       H   -12.30494  -14.03866  -18.09977
       O   -12.91496  -14.50440  -18.66472
      H1   -13.42422  -13.74899  -19.03681
       H   -19.04897   -9.59954   -9.84135
       O   -18.95294  -10.45094  -10.30925
      H1   -19.28993  -11.09177   -9.65391
       H   -14.66429  -17.21115  -16.56319
       O   -14.55275  -18.16105  -16.64251
      H1   -13.56654  -18.24179  -16.62288
       H   -17.93512  -14.51359   -8.01677
       O   -17.47445  -14.22911   -8.88122
      H1   -16.61175  -14.23939   -8.49840
       H   -10.04835  -11.06574  -15.15959
       O   -10.67431  -10.76376  -15.82269
      H1   -10.16992  -10.66431  -16.64127
       H   -12.36861  -14.23920  -11.11600
       O   -12.65107  -14.52265  -11.97265
      H1   -12.35861  -15.48665  -12.00468
       H   -17.13407  -16.21265  -14.38933
       O   -16.30022  -15.68373  -14.27697
      H1   -16.57402  -14.84760  -14.61952
       H   -15.09780   -8.10277  -18.57574
       O   -15.24194   -8.30710  -19.54123
      H1   -16.04217   -7.74225  -19.65417
       H   -14.42226   -2.85957  -13.69426
       O   -15.20028   -3.41134  -13.91692
      H1   -14.81127   -4.25680  -14.06611
       H   -13.15450   -9.37563  -16.84358
       O   -13.59468  -10.07743  -17.36352
      H1   -13.70685  -10.77627  -16.66728
       H   -16.86132  -10.89766  -12.41450
       O   -16.57613  -10.25435  -11.76855
      H1   -17.27750  -10.49189  -11.11637
       H   -17.79627   -3.63029  -18.21453
       O   -18.68093   -4.05055  -18.51114
      H1   -19.36741   -3.41774  -18.22622
       H   -18.22386  -11.85687  -17.72680
       O   -17.66764  -11.67600  -18.51570
      H1   -18.04429  -12.18750  -19.22282
       H   -15.55908   -9.53580  -16.23104
       O   -16.18220   -8.82267  -16.12921
      H1   -15.65417   -8.06559  -15.82639
       H   -18.13571   -7.55367  -19.64276
       O   -17.70362   -6.87236  -19.08690
      H1   -18.39279   -6.17543  -19.19071
       H   -12.31965   -3.47637  -14.63510
       O   -12.29681   -2.91938  -15.47524
      H1   -12.68766   -3.45271  -16.18710
       H   -17.03767  -15.13516  -12.09748
       O   -17.31526  -15.66077  -11.35852
      H1   -17.48040  -14.98873  -10.65247
       H   -18.06149  -17.16019  -16.59572
       O   -18.63493  -17.33499  -15.82505
      H1   -17.95982  -17.72785  -15.22868
       H   -16.10606   -6.14102  -15.03925
       O   -15.18032   -6.34543  -14.99882
      H1   -15.23724   -7.04577  -14.35979
       H   -11.68701  -12.51944  -16.44172
       O   -11.46175  -13.42921  -16.64886
      H1   -11.53756  -13.68696  -15.72009
       H   -18.67435   -5.78683  -15.51728
       O   -17.78053   -5.81428  -15.77795
      H1   -17.56289   -4.93232  -16.09211
       H   -20.04095  -11.38859   -6.93088
       O   -19.77511  -10.79399   -7.63343
      H1   -18.94902  -10.34060   -7.30596
       H   -12.73322   -5.32116  -17.23299
       O   -13.53382   -4.99011  -16.88814
      H1   -13.83621   -5.42054  -16.09122
       H   -14.66385   -4.89426   -9.92819
       O   -14.15508   -4.57239   -9.20659
      H1   -14.13372   -5.40296   -8.72484
       H   -15.67428  -15.05937  -17.66027
       O   -14.91172  -15.15800  -17.06287
      H1   -14.19516  -15.06981  -17.74229
       H   -15.55160   -6.26106  -11.86736
       O   -14.97328   -5.53149  -11.68098
      H1   -15.52870   -4.75478  -11.72027
       H   -18.79780  -11.26329  -15.34018
       O   -18.54444  -12.01885  -15.95385
      H1   -19.40842  -12.37696  -16.18121
       H   -16.48948   -1.49906  -16.21871
       O   -16.23200   -0.57871  -16.45546
      H1   -16.79907    0.00215  -15.88134
       H   -19.48690   -0.33307  -16.64534
       O   -19.81853   -0.08721  -15.76652
      H1   -19.00989    0.07867  -15.21474
       H   -11.42297   -8.98019  -15.83871
       O   -12.04928   -8.22845  -16.12717
      H1   -11.45832   -7.82244  -16.75523

