180
frame 10 | Written by MDAnalysis XYZWriter (release 2.4.3)
       H    -3.09660   -5.74718    5.12124
       O    -3.29234   -4.89330    5.58329
      H1    -4.21773   -5.06138    5.83737
       H    -7.10742   -8.06570    8.55989
       O    -7.84243   -8.33276    9.14281
      H1    -8.29231   -7.47909    9.42282
       H    -9.39584  -11.47852   10.50278
       O   -10.33489  -11.46807   10.18784
      H1   -10.65572  -10.57466   10.54479
       H    -5.85328    0.03314    8.62097
       O    -5.92936   -0.78230    8.07922
      H1    -6.76078   -0.64794    7.62444
       H   -10.61797   -2.22143    7.34749
       O   -11.53057   -2.52944    7.36093
      H1   -11.45431   -2.90684    8.25523
       H    -6.86912   -8.58149   11.89838
       O    -6.09658   -8.26170   11.39601
      H1    -6.58039   -8.41129   10.50150
       H    -6.33461  -11.23867   11.38706
       O    -6.95413  -11.97085   11.24638
      H1    -7.27136  -11.73661   10.36882
       H   -13.14796  -11.00265   13.36019
       O   -13.49581  -10.71939   12.51430
      H1   -14.18202  -10.00779   12.86346
       H    -6.62005   -1.13386    9.69276
       O    -6.98245   -1.51218   10.50485
      H1    -7.81347   -1.05067   10.64258
       H   -11.61670   -1.31848   10.70992
       O   -11.94091   -0.46006   10.89098
      H1   -12.90858   -0.56323   10.97775
       H    -8.63420  -10.22036   13.01587
       O    -8.51521   -9.31719   12.58996
      H1    -9.37047   -9.27188   12.10592
       H    -5.41619   -6.78945    7.36263
       O    -5.67013   -7.55995    7.90570
      H1    -4.88828   -7.65166    8.49269
       H    -6.47014   -7.93297   14.89442
       O    -6.42745   -7.39387   15.67271
      H1    -5.84135   -6.72458   15.35465
       H   -10.53701   -6.64166    6.50096
       O   -11.36014   -7.11988    6.62220
      H1   -12.01976   -6.42010    6.34375
       H    -8.35755   -9.73245    5.39008
       O    -9.14035   -9.21431    5.23855
      H1    -9.44179   -9.14650    6.16606
       H    -3.41758   -6.78829   10.01059
       O    -3.74745   -7.71002    9.80258
      H1    -4.39361   -7.91317   10.43040
       H   -11.92474    0.13151   14.15407
       O   -12.10963   -0.81230   14.18762
      H1   -11.39888   -1.19367   13.61873
       H    -8.16578   -7.48140   15.88522
       O    -9.12642   -7.69933   16.00544
      H1    -9.11407   -8.35062   16.77350
       H   -12.31777   -6.75199    9.77409
       O   -11.54036   -7.36671    9.67754
      H1   -11.73649   -7.70275    8.77083
       H   -10.06020   -1.80626   11.92710
       O   -10.20523   -2.25084   12.77063
      H1    -9.52540   -2.92826   12.84337
       H   -13.11985   -0.31475    5.54582
       O   -13.30046   -0.48075    6.48413
      H1   -12.69772   -1.16351    6.75160
       H    -7.19763  -12.10448    8.01552
       O    -7.85912  -11.58362    8.50741
      H1    -8.68074  -11.80075    8.05077
       H    -5.99498   -5.13374   11.93119
       O    -5.46638   -5.70374   12.47390
      H1    -5.65221   -6.53026   12.06357
       H   -16.90483   -9.79172   10.64696
       O   -15.95262   -9.53211   10.49726
      H1   -15.61524  -10.38710   10.27532
       H   -16.01410   -7.49783    7.54247
       O   -16.48863   -6.67379    7.41531
      H1   -16.32452   -6.27349    8.29278
       H   -10.58542   -7.41377   12.59676
       O   -10.37181   -6.81002   13.35116
      H1    -9.89664   -7.55411   13.83158
       H   -10.34060  -10.83445    4.85449
       O   -10.98037  -11.58050    4.58112
      H1   -10.58021  -12.40853    4.92858
       H   -14.23110   -9.95949    7.40944
       O   -15.00352   -9.33024    7.32893
      H1   -15.26581   -9.34727    6.35583
       H    -6.00644   -4.82665    2.84450
       O    -6.94891   -5.01111    2.65492
      H1    -7.31503   -5.52520    3.37144
       H   -14.93600   -5.68436   14.38996
       O   -14.05682   -5.89528   14.04681
      H1   -13.49207   -6.25743   14.72916
       H    -8.31105   -2.22293    9.43570
       O    -8.70718   -2.90996    8.90215
      H1    -8.21630   -3.71097    9.17354
       H   -11.43338   -6.69891   15.00091
       O   -12.12613   -7.01975   15.56087
      H1   -12.03770   -8.04561   15.47804
       H   -11.54966   -8.71132   11.04383
       O   -11.30692   -9.33422   11.67357
      H1   -12.11055   -9.81030   11.94692
       H   -12.43495  -11.40385    7.52594
       O   -12.88637  -11.41448    6.63748
      H1   -12.09656  -11.37249    6.07685
       H   -13.25450   -4.01617    6.57262
       O   -13.08876   -4.72568    5.91097
      H1   -13.93439   -4.85987    5.38640
       H    -9.04312   -5.82285    8.68033
       O    -9.04460   -6.07709    9.64759
      H1    -9.93623   -6.52933    9.70564
       H    -8.30799   -6.61406    5.78291
       O    -8.77750   -5.99086    6.31653
      H1    -8.37525   -5.12650    6.03566
       H   -11.77112   -5.90374    3.47494
       O   -11.07164   -5.57993    4.11350
      H1   -11.66732   -5.07324    4.72039
       H    -7.68891   -2.83147    5.25533
       O    -7.77792   -3.43442    5.98190
      H1    -8.04955   -2.80526    6.62436
       H   -10.33648   -3.51205   10.18973
       O   -11.28203   -3.14399   10.30424
      H1   -11.35770   -3.28140   11.28179
       H   -14.87926   -1.91553   11.20029
       O   -14.44211   -1.29292   10.59299
      H1   -14.52424   -1.83536    9.76617
       H   -10.18703   -0.00493   10.92128
       O    -9.23939   -0.02186   10.68380
      H1    -8.89038    0.54955   11.38296
       H    -8.46089  -11.12473   15.65394
       O    -8.61669  -11.23887   14.69197
      H1    -9.48260  -11.67517   14.72378
       H    -5.11107   -4.19891    7.52066
       O    -5.57573   -4.90526    7.01165
      H1    -6.27602   -4.42398    6.53763
       H   -14.68694   -3.31490   12.90971
       O   -15.55280   -2.89103   12.64943
      H1   -15.75398   -2.40182   13.47736
       H    -7.05635  -10.54893    7.17281
       O    -6.71483   -9.99180    6.49331
      H1    -6.16632   -9.33736    7.00061
       H   -12.05073   -8.48325    4.52965
       O   -12.45408   -9.13718    3.95859
      H1   -12.33266  -10.01799    4.34469
       H   -12.13269  -13.83364   11.32101
       O   -11.21012  -13.70706   11.64777
      H1   -10.81158  -13.11779   11.00127
       H    -5.22924   -2.16665   13.10029
       O    -5.95475   -1.49908   13.12427
      H1    -6.14711   -1.55681   12.15779
       H   -10.50210   -8.59336    7.40406
       O   -10.06494   -9.33077    7.81214
      H1    -9.30385   -8.89353    8.29275
       H   -13.22611   -5.08180   11.54087
       O   -13.12598   -5.24624   10.58053
      H1   -12.41698   -4.61838   10.27423
       H    -9.42126   -6.44174    3.92481
       O    -8.59399   -6.97526    3.73148
      H1    -8.68072   -7.75889    4.29226
       H   -15.37908   -3.22036    7.54776
       O   -14.40883   -2.96387    7.55680
      H1   -14.47444   -2.07521    7.14515
       H    -4.22353   -3.49495    9.56809
       O    -3.96782   -3.07923    8.70173
      H1    -4.42438   -2.22928    8.69223
       H    -8.93331   -0.14320    7.52902
       O    -8.58663   -0.86966    7.02697
      H1    -8.56177   -0.48749    6.15049
       H   -14.76026   -5.19242   10.01069
       O   -15.63591   -5.26806    9.55826
      H1   -16.21956   -5.47081   10.32441
       H    -2.75316   -5.92602   11.45563
       O    -3.21587   -5.11485   11.15533
      H1    -4.11681   -5.27630   11.56113
       H   -12.72216   -3.12394   13.45691
       O   -13.11524   -3.80068   12.88589
      H1   -13.38530   -4.54394   13.43247
       H    -8.83891   -5.16118   13.50711
       O    -8.35622   -4.30845   13.41451
      H1    -7.90809   -4.20412   14.22862
       H   -15.30036   -7.41364   12.70922
       O   -15.48641   -8.36273   12.85921
      H1   -15.75502   -8.71630   11.98981

