180
frame 11 | Written by MDAnalysis XYZWriter (release 2.4.3)
       H   -17.56622  -16.31076    7.94628
       O   -17.68320  -15.81310    7.13275
      H1   -17.42962  -14.90784    7.46758
       H   -16.92591  -16.97067    5.44089
       O   -17.27610  -17.64622    4.81422
      H1   -18.17602  -17.21762    4.73380
       H   -15.65554  -12.69110    9.18104
       O   -15.06344  -12.21320    9.77979
      H1   -15.55483  -12.29794   10.64884
       H   -12.35493  -18.22885    5.65188
       O   -11.71531  -18.11509    6.33166
      H1   -12.07862  -17.52125    7.00548
       H    -9.74183  -15.31031    4.41379
       O    -9.79821  -14.34493    4.38691
      H1    -8.93028  -14.09667    4.76161
       H   -12.29642  -14.80364    5.43730
       O   -12.21833  -14.98952    6.38780
      H1   -13.11920  -15.19801    6.63500
       H   -13.08713  -11.13304   12.90189
       O   -13.61951  -10.49090   12.36466
      H1   -14.04490   -9.91213   13.00554
       H   -20.05204  -19.68619   15.23093
       O   -19.59050  -19.05448   14.68027
      H1   -18.90830  -19.60589   14.15820
       H    -7.50114  -17.89307   11.16731
       O    -8.03322  -17.06784   11.27205
      H1    -8.90385  -17.24287   11.01879
       H   -17.15438  -15.32034   16.73390
       O   -17.08214  -14.79469   15.91929
      H1   -16.11526  -14.64138   16.04277
       H   -15.87160  -18.06216   15.47645
       O   -15.67963  -18.27880   16.39801
      H1   -14.91411  -18.83806   16.30358
       H   -13.92426  -17.52974    4.01213
       O   -13.43584  -18.34859    4.25676
      H1   -14.05428  -18.94506    4.67965
       H   -15.80766  -13.72936    7.51917
       O   -16.56352  -13.46300    8.05559
      H1   -16.77456  -12.51262    7.78847
       H   -14.01315  -13.43936   10.13942
       O   -13.59657  -14.35257   10.07916
      H1   -14.01382  -14.73650   10.82878
       H   -16.44842  -10.45106    6.42382
       O   -17.21255  -11.01954    6.57111
      H1   -17.80120  -10.54290    7.20971
       H   -14.42334  -18.21985   13.62521
       O   -15.41451  -18.45190   13.60694
      H1   -15.74946  -17.80331   13.02148
       H   -14.08111  -14.90692    8.45864
       O   -14.51464  -15.29007    7.65478
      H1   -14.80113  -16.13937    8.11514
       H   -10.66955  -17.36736    4.62122
       O   -10.04292  -17.03671    4.00510
      H1    -9.26160  -17.62942    4.04917
       H   -19.20623   -9.68911    9.00034
       O   -18.97543   -9.41643    8.13939
      H1   -19.63774   -8.71714    7.92494
       H   -18.49710  -11.54642   10.42780
       O   -18.21989  -10.66706   10.52135
      H1   -18.56676  -10.42178   11.45018
       H   -18.63313  -13.72740   15.26437
       O   -19.48234  -13.25412   15.28083
      H1   -20.27947  -13.83698   15.17481
       H    -9.96170  -16.84778    8.01981
       O   -10.24678  -15.93794    7.97438
      H1   -10.83812  -15.86090    7.23532
       H   -15.15312  -11.45899   12.37822
       O   -15.89575  -12.06187   12.37477
      H1   -16.55279  -11.51709   12.84530
       H   -19.31886  -16.83638   -1.02693
       O   -19.43101  -17.81676   -0.77717
      H1   -18.73871  -17.85249   -0.11493
       H   -16.05969  -18.16794    8.62740
       O   -15.20033  -17.87052    8.36605
      H1   -14.68795  -18.04159    9.15730
       H   -17.42890   -8.95730    5.04825
       O   -16.98563   -8.76605    4.19700
      H1   -16.64000   -9.64302    4.01359
       H   -16.52513   -9.57612   10.62182
       O   -15.73561   -9.40681   10.16393
      H1   -15.31166  -10.29571    9.96001
       H   -10.72949  -15.94380    9.95174
       O   -10.74618  -16.43223   10.77482
      H1   -10.66936  -15.71994   11.40549
       H   -17.97762  -18.85396    8.34158
       O   -17.75402  -18.28139    9.15026
      H1   -18.53491  -17.76981    9.35223
       H   -16.66622  -18.50791    0.13523
       O   -17.20034  -18.33692    0.94155
      H1   -16.72136  -17.52653    1.20773
       H   -15.45495  -16.61701   10.95629
       O   -16.00627  -16.42461   11.77571
      H1   -16.81142  -16.31349   11.27031
       H   -19.15412  -14.06726   10.00413
       O   -19.29725  -13.27920    9.43394
      H1   -18.61266  -13.42245    8.85927
       H   -13.04242  -13.35431   13.45430
       O   -12.40677  -12.58075   13.51279
      H1   -11.95350  -12.85031   12.67583
       H   -14.96115  -15.24121   12.45954
       O   -14.34666  -14.53810   12.55769
      H1   -14.85969  -13.72371   12.54351
       H   -14.34885  -10.02629    6.13431
       O   -15.11173   -9.36679    6.08860
      H1   -14.86524   -9.05486    5.19190
       H    -9.93161  -16.80273    2.27389
       O    -9.94617  -16.60273    1.29045
      H1    -9.01267  -16.64572    0.99485
       H   -13.44045  -15.48694    2.95986
       O   -14.15077  -15.74127    3.62086
      H1   -14.39690  -14.96488    4.13098
       H   -18.02755  -15.25003   14.41381
       O   -18.54321  -15.83167   13.80269
      H1   -19.04612  -16.43231   14.37284
       H    -7.55234  -16.82811    7.62784
       O    -7.54012  -15.88592    7.56173
      H1    -8.43565  -15.62605    7.72661
       H   -12.09162  -12.17161    6.25460
       O   -12.85630  -11.80936    6.75977
      H1   -13.56639  -12.13881    6.19444
       H   -15.64951  -15.38484   -1.47128
       O   -16.44634  -15.93773   -1.45673
      H1   -16.23849  -16.72646   -0.90876
       H   -18.89889  -19.72297    6.65360
       O   -17.98410  -19.45088    6.77022
      H1   -17.86451  -18.71979    6.14378
       H    -9.76109  -12.53386    7.95332
       O    -9.27633  -13.16529    7.36852
      H1   -10.04618  -13.68573    7.05926
       H   -14.20059  -12.83774    4.07792
       O   -14.60763  -13.20383    4.89566
      H1   -15.57218  -13.13633    4.71617
       H   -14.38524  -18.70442   -0.96120
       O   -15.18168  -19.28033   -0.73390
      H1   -15.58159  -19.38782   -1.62352
       H   -14.87177  -16.15859   18.78680
       O   -15.72204  -16.24160   18.38173
      H1   -15.49112  -16.94365   17.73475
       H   -14.26447  -14.38564   14.79843
       O   -14.61691  -13.98179   15.64749
      H1   -13.80565  -13.69918   16.11972
       H   -12.97828  -16.83595   -1.40586
       O   -13.23682  -17.24416   -0.54039
      H1   -12.51129  -17.82184   -0.26555
       H   -18.40981  -15.49376   11.94291
       O   -18.31964  -15.31113   11.03163
      H1   -18.97330  -16.00744   10.71862
       H   -12.65787  -16.08939    0.76917
       O   -12.37582  -15.32695    1.35838
      H1   -11.38129  -15.52764    1.47917
       H   -18.18099  -13.51245    4.63509
       O   -17.30807  -13.24548    4.94441
      H1   -17.55940  -12.38377    5.40934
       H   -12.03883  -13.59656   10.72188
       O   -11.26479  -13.37348   11.31021
      H1   -10.92938  -12.66544   10.71096
       H   -18.82471  -11.71485   14.20870
       O   -18.40305  -11.08113   13.64924
      H1   -18.34901  -10.32298   14.22729
       H   -13.11368  -17.89483   11.38477
       O   -13.36765  -17.52195   10.51193
      H1   -12.64872  -16.86040   10.28929
       H    -7.47724  -17.40601    4.95055
       O    -7.74356  -18.32954    4.84450
      H1    -8.26141  -18.46334    5.73522
       H   -15.34932  -15.37642    1.30641
       O   -16.04177  -15.86210    1.75891
      H1   -15.63923  -16.07305    2.59487
       H   -15.88161  -12.11080    1.52543
       O   -15.66003  -13.02867    1.25655
      H1   -16.40779  -13.58968    1.68195
       H   -17.77523  -15.34276    2.43077
       O   -18.58480  -14.79936    2.65581
      H1   -19.15882  -15.56423    2.86691
       H    -8.67108  -19.24075    7.66013
       O    -9.16041  -18.53507    7.20454
      H1    -9.94555  -18.99944    6.87921
       H   -11.79896  -18.60269   13.08609
       O   -12.81287  -18.48562   12.92710
      H1   -13.05115  -19.40858   13.12762

