180
frame 8 | Written by MDAnalysis XYZWriter (release 2.4.3)
       H   -15.22461   14.37505    5.86357
       O   -14.27583   14.39022    5.76624
      H1   -14.07719   14.72241    4.88786
       H   -19.08571   14.05281    2.40486
       O   -19.21314   13.14285    2.15828
      H1   -18.34360   12.80842    2.11559
       H   -17.98796   12.33343   -6.22017
       O   -17.31650   12.26524   -6.94742
      H1   -16.96135   13.17077   -7.00274
       H   -19.21447   16.36838    2.42850
       O   -18.75527   15.73170    2.99035
      H1   -19.20712   15.81861    3.90181
       H   -16.45202   16.08210   -4.78999
       O   -16.25164   15.26441   -4.34313
      H1   -16.62406   15.34620   -3.46676
       H   -17.96885   14.26665   -9.25730
       O   -18.76942   14.75279   -9.11596
      H1   -18.39001   15.64132   -9.17169
       H   -14.69344   15.49594  -12.38187
       O   -13.86192   15.92209  -11.99771
      H1   -14.23353   16.80419  -11.65501
       H   -14.39442   18.93689   -3.21064
       O   -13.72801   18.32347   -3.60350
      H1   -12.98826   18.35858   -2.96472
       H   -13.97831   19.98715   -8.12977
       O   -14.76693   19.41334   -8.07656
      H1   -14.99176   19.28633   -8.98347
       H   -15.52310   18.83686  -10.90374
       O   -14.73870   18.26288  -10.76917
      H1   -15.04172   17.65405  -10.01912
       H   -12.86003   18.30262  -11.02465
       O   -11.89304   18.30479  -11.08152
      H1   -11.79583   18.86376  -11.91423
       H   -14.67373   12.31623   -6.20329
       O   -14.57914   12.89116   -5.39976
      H1   -15.48461   12.97660   -5.06140
       H    -8.90317   15.23797    0.12367
       O    -8.20109   15.81677    0.46409
      H1    -7.72869   16.00021   -0.42390
       H   -17.61014   14.89007    4.34379
       O   -17.30228   14.19852    4.93130
      H1   -18.09633   14.03168    5.58081
       H   -13.93615   14.43925   -6.23647
       O   -13.97371   15.41065   -6.00484
      H1   -14.82646   15.30281   -5.51724
       H   -19.31527   19.81078   -1.72168
       O   -19.51657   18.97711   -2.22167
      H1   -19.09689   18.41297   -1.58063
       H   -17.45104   16.40153   -6.48776
       O   -16.98320   17.22159   -6.29902
      H1   -17.43013   17.65981   -5.56396
       H   -13.45930   19.70014    3.44758
       O   -12.86014   18.93734    3.42639
      H1   -11.98357   19.31942    3.10816
       H    -7.61943   16.34427   -2.61245
       O    -6.88860   16.72721   -2.11671
      H1    -6.21169   16.85056   -2.86439
       H   -19.05661   16.44236   -1.26938
       O   -18.83863   16.97823   -0.50542
      H1   -19.74208   16.99721   -0.08500
       H   -11.53901   12.35077   -2.29515
       O   -11.10911   12.58081   -1.44337
      H1   -11.62366   12.21592   -0.74437
       H   -18.32549   19.27783   -3.95909
       O   -17.45473   18.83422   -4.15735
      H1   -17.10478   18.55406   -3.33219
       H   -18.78553   17.04749    6.10791
       O   -19.43915   16.52913    5.60969
      H1   -19.97179   17.25486    5.21428
       H   -14.08357   11.11351   -1.08503
       O   -14.90989   11.23570   -1.53771
      H1   -15.54025   11.02105   -0.83484
       H   -13.04293   18.15071    1.65278
       O   -13.45260   17.59052    1.00243
      H1   -14.03091   18.33470    0.69606
       H   -17.01643    9.31458   -4.86939
       O   -16.22032    9.36096   -4.29178
      H1   -16.22309   10.23664   -3.95199
       H   -16.09293   11.71082   -2.56711
       O   -16.82899   12.04161   -3.16660
      H1   -17.55884   11.49753   -2.83242
       H   -10.92044   15.43559   -7.76757
       O    -9.98598   15.92240   -7.67103
      H1   -10.21723   16.66693   -7.05435
       H   -13.13382   15.24657   -4.07943
       O   -12.20187   15.30401   -3.78116
      H1   -11.98769   16.19301   -4.06124
       H    -8.70366   18.53357   -0.94134
       O    -9.17692   18.20943   -0.12514
      H1    -8.69401   17.37264    0.11464
       H   -12.95881   10.94354    0.64609
       O   -12.39160   10.65324   -0.15245
      H1   -12.54413    9.66679   -0.19484
       H   -19.06589   14.58622   -7.33677
       O   -18.97764   14.66604   -6.34805
      H1   -19.77363   14.21417   -6.06359
       H   -16.83629   15.05279   -0.23270
       O   -16.21293   14.40514    0.17068
      H1   -15.44555   14.43280   -0.46558
       H   -13.17312   15.22482    3.06928
       O   -13.04286   15.66688    3.88328
      H1   -13.13540   16.56098    3.61004
       H   -12.11005   17.58426   -6.11562
       O   -11.57082   17.64058   -5.28203
      H1   -12.11522   18.28428   -4.81498
       H    -8.48396   13.85021   -2.94819
       O    -8.91049   14.39238   -3.64657
      H1    -9.55884   13.76092   -3.94143
       H   -14.09753   17.60455    5.92933
       O   -13.65945   16.97678    6.47096
      H1   -13.80859   16.11203    6.04069
       H    -9.78498   16.65517   -9.41245
       O    -9.75876   16.76816  -10.35585
      H1   -10.60650   17.32899  -10.50683
       H   -16.53125   12.80525    0.85066
       O   -16.65078   12.03866    1.47057
      H1   -15.80750   11.60605    1.57275
       H   -16.61828   18.99300    2.90641
       O   -17.37528   18.73954    2.32765
      H1   -16.97111   18.26637    1.63444
       H   -13.97602   16.40022   -0.95441
       O   -14.26373   15.76775   -1.64331
      H1   -13.53288   15.86700   -2.30875
       H   -18.62269   16.68401  -12.46155
       O   -18.60157   17.36947  -11.80644
      H1   -19.33730   17.87798  -12.16365
       H   -18.15436    8.82397    0.84618
       O   -18.04717    9.47985    1.52902
      H1   -17.70138   10.20702    1.04845
       H   -11.17751   14.35897   -0.99538
       O   -10.82155   15.15248   -0.48275
      H1   -10.98903   15.89692   -1.12471
       H   -14.87988   12.70499   -8.85699
       O   -14.78097   13.70893   -8.61586
      H1   -13.84494   13.64932   -8.34450
       H   -13.27750   11.59015   -3.90051
       O   -12.40619   11.38137   -3.49713
      H1   -11.99286   10.86341   -4.23705
       H   -11.74957   13.41686   -6.71137
       O   -12.03060   13.75929   -7.60802
      H1   -11.47460   13.13534   -8.12697
       H   -15.24621   15.62873   -8.67219
       O   -15.91600   16.32408   -8.84880
      H1   -15.86093   16.72491   -7.97059
       H   -18.51390   11.12194   -9.71146
       O   -17.98502   11.90226   -9.64310
      H1   -18.07147   12.12212   -8.69184
       H   -13.52380   12.83483    1.85834
       O   -13.66273   11.87342    1.81685
      H1   -13.99701   11.71566    2.75616
       H   -17.09327   18.15881    4.93919
       O   -16.43898   17.43273    5.12655
      H1   -16.20803   17.14256    4.23460
       H   -13.91403   10.75689   -8.83600
       O   -14.48548   10.92882   -8.07116
      H1   -15.13053   10.28797   -8.22180
       H   -13.77827   17.96263   -7.47521
       O   -13.03229   17.34486   -7.56466
      H1   -13.27478   16.56468   -7.00351
       H   -18.08774   17.96761   -8.65421
       O   -18.90683   17.47978   -8.86752
      H1   -19.01461   17.60172   -9.83002
       H   -16.93674   17.20400   -1.36027
       O   -16.33064   17.76308   -1.86280
      H1   -15.55408   17.20438   -1.95194
       H   -13.51737   15.37721    0.92780
       O   -12.99758   14.68401    1.28616
      H1   -12.14164   14.84807    0.83734
       H   -17.70241   13.78234   -2.55081
       O   -18.01514   14.64876   -2.21954
      H1   -18.53776   14.28347   -1.52017
       H   -12.27805   17.91001   -0.87626
       O   -11.95040   17.91261   -1.77607
      H1   -11.12858   18.46295   -1.72774
       H   -11.48680   14.17122   -4.89020
       O   -11.13101   13.34051   -5.21854
      H1   -11.64319   12.74963   -4.68630
       H    -8.89199   16.25310   -4.14788
       O    -8.84153   17.21363   -4.13949
      H1    -9.67009   17.38140   -4.65431

