180
frame 3 | Written by MDAnalysis XYZWriter (release 2.4.3)
       H    -4.12398  -12.56157  -15.76152
       O    -4.80791  -13.18042  -16.05954
      H1    -5.50861  -12.55526  -16.33722
       H   -17.85330   -8.99193  -13.85042
       O   -18.48869   -8.19247  -13.90350
      H1   -17.93526   -7.49468  -14.24045
       H   -11.27481   -6.31000  -19.49398
       O   -11.91384   -6.79334  -18.84534
      H1   -12.46751   -7.28845  -19.51266
       H    -5.48617  -13.84618  -14.17765
       O    -5.83087  -13.83057  -13.28676
      H1    -6.60452  -13.26911  -13.33633
       H   -12.71212  -14.92778  -13.43636
       O   -12.15419  -15.47971  -13.97218
      H1   -12.54192  -16.36370  -13.74974
       H   -11.98165   -9.59557  -10.77670
       O   -12.35315   -9.40827  -11.69991
      H1   -12.83412  -10.23222  -11.73695
       H    -8.91806  -11.54759  -13.71324
       O    -8.24443  -12.12416  -14.06970
      H1    -7.95716  -11.49321  -14.79658
       H    -9.04762   -9.14655  -16.09334
       O    -8.54394   -8.40747  -15.81745
      H1    -8.14067   -8.86948  -15.11378
       H    -2.37243  -16.00930  -15.36192
       O    -1.48198  -16.23720  -15.24904
      H1    -1.35954  -16.30861  -14.28761
       H   -12.44529  -12.65548   -8.95218
       O   -13.05741  -13.34923   -8.95721
      H1   -12.53727  -14.21494   -8.91171
       H   -11.73142  -10.60403  -18.19817
       O   -12.07682  -10.56383  -19.08945
      H1   -12.81471   -9.95462  -18.99849
       H   -17.95753  -18.40010  -18.12930
       O   -18.37602  -18.18721  -17.27390
      H1   -18.28034  -17.19812  -17.33712
       H   -12.86411  -19.24236  -18.45058
       O   -13.36384  -18.37712  -18.40244
      H1   -12.77352  -17.99126  -19.11617
       H   -10.34683  -18.24542   -9.84248
       O    -9.68454  -17.50350   -9.92823
      H1   -10.14801  -16.71860   -9.56024
       H    -5.70647  -18.36541  -15.80758
       O    -4.85092  -17.99391  -15.52693
      H1    -4.40913  -18.65790  -14.95244
       H   -10.20018  -11.34324  -16.92262
       O   -10.27035  -10.36995  -16.99270
      H1    -9.60308  -10.24273  -17.70882
       H   -14.20006  -17.59070  -13.53890
       O   -13.32190  -17.78089  -13.16797
      H1   -13.50900  -17.45355  -12.19632
       H    -8.34385  -16.27816  -17.14951
       O    -7.60030  -16.00406  -16.64268
      H1    -7.40146  -15.12322  -16.96541
       H   -16.76016  -13.34996  -13.68946
       O   -16.36401  -13.43131  -12.84774
      H1   -15.50265  -13.60493  -13.22904
       H   -16.15456  -13.05617  -16.77214
       O   -15.73467  -13.50538  -16.04588
      H1   -15.68914  -14.47005  -16.21941
       H   -14.44624  -12.54820  -16.50017
       O   -13.67883  -11.96020  -16.61897
      H1   -13.49089  -11.47246  -15.81478
       H    -4.56056  -15.19297  -12.85929
       O    -3.88343  -15.83810  -12.81941
      H1    -4.41241  -16.65966  -12.67272
       H   -11.21960  -11.72912  -12.57885
       O   -10.66718  -10.99198  -12.95127
      H1   -11.11918  -10.23913  -12.46532
       H   -15.84426   -9.44963  -12.90306
       O   -15.16053   -9.13585  -13.46357
      H1   -14.54883   -8.81364  -12.82735
       H   -14.09964  -12.39891  -11.90842
       O   -14.06464  -11.44155  -12.01350
      H1   -14.58837  -11.28592  -12.84840
       H    -9.61639  -13.01665  -15.56619
       O    -9.45282  -12.92684  -16.48500
      H1    -9.96961  -13.57627  -16.96105
       H   -14.91693  -15.41835  -18.48193
       O   -14.76205  -15.06187  -19.38184
      H1   -14.81465  -14.09330  -19.33704
       H   -11.97284  -10.45339  -14.06454
       O   -12.25395  -10.09349  -14.89570
      H1   -11.42715  -10.06715  -15.38843
       H    -7.19251  -15.53686  -13.00973
       O    -7.65855  -16.21342  -12.54642
      H1    -8.45174  -16.37956  -13.11128
       H    -7.65190  -15.34007  -10.91391
       O    -7.33481  -14.45299  -10.58263
      H1    -7.54499  -14.49602   -9.63071
       H   -12.92619  -13.58811  -11.59134
       O   -13.57342  -14.06565  -12.18464
      H1   -13.88835  -14.65244  -11.50232
       H    -7.93252  -17.65597   -9.13438
       O    -7.02182  -17.93780   -8.94433
      H1    -6.63615  -18.15253   -9.76634
       H   -15.50376  -16.97293  -15.50134
       O   -15.49296  -17.05465  -14.55081
      H1   -15.99624  -17.83997  -14.31839
       H   -10.49741  -19.18637  -15.44243
       O    -9.68690  -18.96532  -14.87147
      H1    -9.85184  -18.03596  -14.71541
       H    -4.74044  -14.82331  -16.95739
       O    -4.38174  -15.70326  -17.19873
      H1    -4.74770  -16.39293  -16.60381
       H   -16.43501   -8.73201  -19.67299
       O   -16.23676   -7.82384  -19.90867
      H1   -15.93954   -7.46988  -19.01036
       H    -8.00768  -10.48735  -11.53597
       O    -8.21076  -10.95624  -10.72658
      H1    -7.31623  -11.10733  -10.36594
       H    -9.57491   -7.43704  -18.97084
       O    -8.71393   -7.41078  -18.62330
      H1    -8.87186   -7.27157  -17.68844
       H   -14.26950   -8.74725  -17.00270
       O   -14.65159   -9.41113  -17.58584
      H1   -14.31823  -10.21958  -17.19464
       H    -6.25786  -10.42210  -16.94562
       O    -6.64795  -11.27837  -16.71376
      H1    -7.37719  -11.31929  -17.38234
       H   -10.09578  -12.88718  -11.48568
       O   -10.90924  -13.39162  -11.34662
      H1   -10.75370  -14.22708  -11.81635
       H    -7.96413   -9.28938  -18.63726
       O    -8.41822  -10.04779  -18.89301
      H1    -7.79392  -10.46643  -19.57146
       H   -16.96806  -11.82231  -12.45132
       O   -17.24734  -10.88394  -12.46246
      H1   -17.73453  -10.71840  -11.61483
       H   -19.17330  -15.61151  -18.35985
       O   -18.26037  -15.63306  -17.97956
      H1   -17.89484  -15.21257  -18.75145
       H   -17.54471   -9.27420  -16.19228
       O   -17.72827   -8.55862  -16.82528
      H1   -17.00446   -8.59194  -17.46606
       H   -17.13111  -15.26809  -11.92916
       O   -17.71244  -15.59558  -11.24688
      H1   -17.81305  -14.89324  -10.58479
       H   -14.81215  -16.35593  -10.26204
       O   -13.94111  -16.44849  -10.69524
      H1   -13.42129  -15.98682  -10.02152
       H   -12.83753  -13.47368  -16.57489
       O   -12.29219  -14.30822  -16.52869
      H1   -12.30535  -14.53607  -15.55503
       H    -7.57933  -18.19628  -12.08667
       O    -8.00797  -18.97641  -11.70401
      H1    -8.50986  -18.59554  -10.97697
       H    -1.13815  -16.39084  -18.78580
       O    -1.88676  -15.83976  -18.96917
      H1    -2.44915  -15.83081  -18.14377
       H    -7.51081  -16.57033  -19.22276
       O    -6.67270  -16.61715  -19.73070
      H1    -5.99746  -16.44781  -19.03678
       H   -16.93163  -17.92867   -9.15947
       O   -16.39982  -17.26280   -9.58393
      H1   -17.07659  -16.88709  -10.21072
       H   -10.24012  -16.63417  -19.18762
       O    -9.44413  -16.85839  -18.62574
      H1    -9.47842  -17.82221  -18.71932
       H   -15.95022  -17.16141  -17.52890
       O   -15.40849  -16.41255  -17.23181
      H1   -14.59068  -16.87805  -17.38244
       H   -15.13801  -16.23220   -7.09453
       O   -16.07853  -16.21442   -7.19349
      H1   -16.06671  -16.69772   -8.05358
       H   -10.54046  -14.79548   -8.38000
       O   -11.00174  -15.11792   -9.13942
      H1   -10.88073  -14.43517   -9.84325
       H    -9.10252  -15.74775  -15.33467
       O    -9.62888  -16.15987  -14.57204
      H1   -10.41932  -15.65056  -14.67015
       H   -18.03898  -13.49947  -18.04700
       O   -17.54953  -12.63309  -17.91543
      H1   -18.34037  -12.06896  -17.80633
       H   -12.38599   -8.23829  -15.78889
       O   -12.84757   -7.53752  -16.22031
      H1   -12.25805   -7.23732  -16.98334
       H    -3.77809  -19.66156  -12.81641
       O    -3.34151  -18.82302  -13.04960
      H1    -3.40260  -18.26767  -12.24496

