180
frame 9 | Written by MDAnalysis XYZWriter (release 2.4.3)
       H   -12.76792    7.81924   15.63859
       O   -12.41943    7.03591   16.07791
      H1   -12.32629    7.47058   16.94780
       H   -14.88068   14.57442    5.89406
       O   -14.01662   14.75649    6.24077
      H1   -13.60310   15.20659    5.53294
       H   -15.77591    6.55210   10.47690
       O   -16.26618    6.96930   11.27300
      H1   -16.32173    7.87778   10.92063
       H   -10.74310    7.58660   14.82442
       O   -10.52314    7.93176   13.97053
      H1    -9.52689    8.04617   14.07470
       H   -13.26414    7.45893   11.64876
       O   -13.76795    7.15911   12.40803
      H1   -14.64767    7.25406   11.99380
       H   -14.50366   17.11912   10.27711
       O   -15.06126   17.73240    9.71875
      H1   -14.53775   17.79620    8.88461
       H   -15.48583   15.47082   16.61564
       O   -14.84557   14.94468   16.14807
      H1   -14.29709   14.46933   16.79101
       H   -12.42213   10.43285   14.42288
       O   -11.84351   11.21818   14.32842
      H1   -10.99011   10.85448   14.46825
       H   -16.65084   15.40569   14.61166
       O   -17.36012   16.02722   14.45079
      H1   -17.35136   16.49743   15.26774
       H   -14.62723   15.59154   14.02319
       O   -14.00374   16.27488   13.78109
      H1   -13.69371   16.62181   14.64030
       H   -17.38996   12.08860    8.02828
       O   -18.00842   11.86740    7.29552
      H1   -18.55418   12.65732    7.20810
       H   -14.62392    8.96043   14.34578
       O   -13.66372    8.89446   14.40629
      H1   -13.46383    8.23570   13.61038
       H    -9.13447   10.47689    9.23094
       O    -8.42628   10.38813    9.97897
      H1    -8.77342    9.70123   10.52123
       H   -18.28738    4.89902   16.24230
       O   -17.35005    4.61578   16.17903
      H1   -16.86473    5.45878   16.27543
       H   -19.75707    9.56864    8.61706
       O   -19.38162   10.40176    9.06779
      H1   -18.86403   10.83896    8.34552
       H   -11.37171   14.86519   10.59484
       O   -10.64845   15.34010   10.21712
      H1   -10.41738   14.80596    9.41069
       H   -17.05938   15.01826    4.71924
       O   -16.81488   14.23634    5.25584
      H1   -17.66726   14.06323    5.72151
       H   -10.60380   13.45571    7.74328
       O    -9.81472   13.76421    8.20165
      H1    -9.20445   14.01396    7.48199
       H   -16.49664    9.82476   14.15795
       O   -16.28766    9.21562   14.87961
      H1   -17.10441    8.64922   14.73984
       H   -11.44172    9.92495    8.19262
       O   -10.69017    9.41593    8.48595
      H1   -10.51790    8.90080    7.71382
       H   -18.01825   16.59945    9.51935
       O   -17.41499   16.18936    8.87894
      H1   -16.52937   16.47509    9.12582
       H   -15.56363    7.01353    4.60438
       O   -15.88951    7.76082    5.09824
      H1   -16.23616    8.35462    4.47263
       H   -11.99762    7.08872   10.49847
       O   -12.37639    7.74198    9.88187
      H1   -11.66800    8.31835    9.55829
       H   -18.69039    3.24449   13.37861
       O   -19.45440    2.61355   13.33540
      H1   -18.90729    1.74135   13.24597
       H   -17.91858    9.68389    4.18592
       O   -18.16751    8.91533    3.64188
      H1   -17.79978    9.13391    2.77111
       H   -17.60233   10.18667   10.18770
       O   -17.06630    9.63046   10.83147
      H1   -16.33672   10.26160   10.84231
       H   -17.41766    7.29056    7.62889
       O   -17.90952    6.49982    7.54413
      H1   -17.48225    6.24236    6.71147
       H   -16.57905    4.93087   13.22827
       O   -17.47349    4.73105   13.53279
      H1   -17.33246    4.76327   14.46521
       H   -10.68533    6.93089   12.24498
       O   -11.04717    6.16766   11.76170
      H1   -11.29944    5.54501   12.46386
       H   -12.81383    6.92041    8.00448
       O   -13.42385    6.68337    7.26370
      H1   -13.24614    7.41392    6.64220
       H   -11.38641   11.85166   12.44757
       O   -11.46305   12.37214   11.62185
      H1   -12.04570   11.73033   11.15093
       H   -18.84329    8.12312   13.76791
       O   -18.41609    7.65653   14.54020
      H1   -18.44000    6.71740   14.15850
       H   -15.36505    3.65834    6.68068
       O   -16.19097    3.55612    7.19320
      H1   -16.04385    3.69744    8.13868
       H   -13.85911   14.72171   11.15273
       O   -13.68034   15.70954   11.12876
      H1   -13.67941   15.90785   12.05404
       H   -19.14346    7.61636   16.25430
       O   -19.26947    7.91348   17.14325
      H1   -18.80066    8.75709   17.19358
       H   -13.44418   11.30431    6.97285
       O   -13.68242   10.45816    7.40601
      H1   -14.27759    9.97511    6.80891
       H   -14.12245   17.93135    6.91956
       O   -13.66660   17.29479    7.40786
      H1   -14.00109   16.51052    6.93788
       H   -13.69951    5.09315   12.86869
       O   -14.23277    4.29020   12.94344
      H1   -14.00834    3.93675   13.84948
       H   -16.57235    5.80024    8.52195
       O   -15.73879    5.76307    8.99313
      H1   -15.07846    5.88375    8.30977
       H   -17.38406   11.45798   12.66149
       O   -17.14348   11.52424   13.61406
      H1   -17.96251   11.80813   14.02586
       H   -15.34160   10.88537    4.85939
       O   -14.58290   10.33884    4.64264
      H1   -14.70552    9.81785    3.81172
       H   -14.80264    5.69645   17.36146
       O   -14.90677    5.93142   16.39705
      H1   -14.04796    6.37556   16.14450
       H   -17.59139   18.09430   11.71366
       O   -18.33932   17.71370   11.19277
      H1   -18.29163   18.42648   10.50103
       H   -17.83586   14.66666    9.82682
       O   -17.98256   13.98873   10.54283
      H1   -18.84227   13.58436   10.29517
       H   -13.25350    3.76183    8.89706
       O   -12.45587    3.86579    9.43501
      H1   -11.82595    3.26823    8.90601
       H   -16.82972   12.99955   10.07142
       O   -16.23384   12.29081    9.77124
      H1   -15.47242   12.41764   10.39865
       H   -12.71942    9.12158    4.96710
       O   -12.96187    8.23905    5.16125
      H1   -13.93977    8.41991    5.06898
       H   -17.98132    6.49612   11.30424
       O   -18.81053    6.13884   11.65034
      H1   -18.40659    5.48992   12.26954
       H   -18.48005   14.15695   12.78707
       O   -19.16768   14.61521   13.30117
      H1   -18.51378   15.02460   13.92091
       H   -17.85750   12.01002   17.46242
       O   -17.58688   12.93194   17.46607
      H1   -18.54585   13.13680   17.29081
       H   -19.36789    5.06487   10.04858
       O   -19.72498    4.84372    9.13893
      H1   -19.17385    5.36472    8.58508
       H   -15.44066   13.77110   14.95076
       O   -15.75785   13.74591   14.00320
      H1   -16.13456   12.86986   13.94287
       H   -10.96444    9.08985   12.28150
       O   -10.30267    9.40175   11.56248
      H1   -10.52706   10.34272   11.55768
       H   -13.02595   13.49786    6.88166
       O   -12.41361   12.76789    7.11492
      H1   -11.72469   12.75805    6.47091
       H   -12.47373    9.96531   10.42655
       O   -13.14210   10.62605   10.16067
      H1   -13.38701   10.46134    9.25965
       H   -13.46396   13.11499   12.11191
       O   -14.37654   13.16041   11.78105
      H1   -14.95367   13.47210   12.53196
       H   -19.28041    7.86296   11.84448
       O   -19.37287    8.77795   12.20508
      H1   -18.74515    9.23629   11.60908
       H   -16.99114    9.98711   16.50823
       O   -17.63286   10.17906   17.23499
      H1   -16.95617   10.17697   17.98521
       H   -17.48206    4.18820    5.72061
       O   -17.27357    4.98047    5.26553
      H1   -18.05939    5.08016    4.73444
       H   -17.12694   12.14649    4.15868
       O   -17.18540   11.30835    4.65504
      H1   -17.59018   11.66513    5.47575

