180
frame 11 | Written by MDAnalysis XYZWriter (release 2.4.3)
       H   -14.95390   -6.90355    3.18653
       O   -15.26282   -6.00932    3.11793
      H1   -16.20515   -6.20875    3.06594
       H    -6.56123   -0.33368    8.53256
       O    -5.72426   -0.62701    8.15151
      H1    -5.94844   -1.23739    7.45778
       H    -9.98598   -2.25053    0.20439
       O    -9.15511   -1.77521    0.46392
      H1    -8.55672   -2.49134    0.73408
       H    -8.91320    2.95573   -1.20763
       O    -9.33837    2.91584   -0.35300
      H1    -8.79081    2.29669    0.08207
       H   -13.49787    3.33364    3.17090
       O   -14.19260    4.01954    3.19325
      H1   -13.90523    4.70189    2.52298
       H   -10.11771   -2.35958    7.05437
       O   -10.70436   -3.08153    7.32252
      H1   -10.95743   -2.62523    8.09656
       H   -11.08408    0.48164   -1.75380
       O   -11.74905    1.08378   -1.34626
      H1   -11.37065    1.93779   -1.61143
       H   -12.21797    5.32593    5.33184
       O   -12.98106    4.77043    5.51073
      H1   -13.38505    4.65935    4.59737
       H   -12.47122   -1.07530    9.84608
       O   -12.68706   -0.11791    9.79855
      H1   -13.62726   -0.20492    9.68500
       H   -13.86265   -4.22817   -1.20380
       O   -14.73120   -3.75300   -1.14555
      H1   -14.84478   -3.72644   -0.16658
       H   -12.28848   -3.60487    1.71413
       O   -11.31896   -3.53426    1.55029
      H1   -11.03406   -4.23188    2.06152
       H   -15.17927   -4.93149    4.70395
       O   -15.34488   -4.47452    5.52617
      H1   -15.51954   -5.24670    6.12829
       H   -11.32033    2.57066   11.35310
       O   -10.85241    3.28617   10.90761
      H1   -11.31530    3.37232   10.07513
       H    -9.25337    4.13174    7.06252
       O    -8.55937    3.68432    7.53821
      H1    -9.08760    2.93105    7.81526
       H    -4.72660   -1.15587    3.79822
       O    -4.62592   -1.50917    2.90180
      H1    -5.48965   -1.52045    2.55310
       H   -12.44492    1.76726    6.50272
       O   -11.74657    2.27320    6.00435
      H1   -12.23471    3.01634    5.70003
       H   -10.57346   -6.51731    6.18849
       O   -11.39380   -6.97391    6.31809
      H1   -12.02723   -6.28795    6.06102
       H   -11.49006    0.36772    4.95944
       O   -11.71682   -0.43670    4.50192
      H1   -12.32900   -0.21338    3.83303
       H   -11.52364    0.45366    0.12661
       O   -11.42546    0.02852    0.98687
      H1   -10.53551   -0.31758    0.86326
       H    -9.97231    6.53863    3.25017
       O    -9.43989    5.76831    3.20793
      H1    -9.85126    5.41602    2.39135
       H    -8.34924    3.85748    4.26803
       O    -8.84002    3.01561    4.29272
      H1    -8.39816    2.42334    4.88839
       H   -10.13281   -0.71468    3.38448
       O    -9.16299   -1.05555    3.17166
      H1    -9.20402   -1.45617    2.28537
       H   -15.72233    0.93584    0.58958
       O   -16.06141    0.18703    0.06406
      H1   -15.45335   -0.54036    0.25322
       H    -6.70372   -3.76677    1.59742
       O    -6.76465   -2.87959    1.26736
      H1    -6.00757   -2.84830    0.69798
       H   -14.65215   -4.27347    2.09609
       O   -14.03781   -3.74886    1.60345
      H1   -14.41958   -2.90632    1.59437
       H   -12.86311   -0.41648    6.06329
       O   -13.39293   -0.02694    6.78280
      H1   -13.51439   -0.77768    7.39179
       H   -12.95461   -0.63097    1.40722
       O   -13.89429   -0.77328    1.66202
      H1   -14.10401   -0.09517    2.35189
       H   -15.30078    3.38427    1.90411
       O   -15.52675    3.09462    1.03036
      H1   -16.31677    3.67498    0.82162
       H   -14.29545    4.20996    7.33768
       O   -15.03685    3.85642    7.85978
      H1   -15.44195    4.69265    8.19733
       H   -10.90944    1.19894    8.53698
       O    -9.93685    1.34134    8.59295
      H1    -9.81142    1.07901    9.53171
       H   -11.15574    2.07568    2.17974
       O   -11.13492    2.60876    2.99177
      H1   -10.15872    2.63088    3.20395
       H   -17.68833   -1.88603    0.62681
       O   -17.00638   -2.48303    0.92221
      H1   -17.17774   -2.65327    1.85693
       H   -17.67261    0.66297    0.53751
       O   -18.28536    1.11484    1.16844
      H1   -17.78216    0.93886    1.98588
       H   -18.11055    2.27563    3.91167
       O   -17.24211    1.80361    3.85598
      H1   -17.35588    0.99395    4.38731
       H    -9.70347    5.53341    0.40491
       O   -10.58148    5.18586    0.56734
      H1   -10.32270    4.28137    0.38525
       H   -11.94726   -3.81090    6.17016
       O   -12.48594   -4.46375    5.85875
      H1   -13.38242   -4.14947    6.04208
       H   -10.18130   -5.20555    7.96046
       O   -10.12520   -5.57233    8.87874
      H1   -10.87644   -6.19784    8.90495
       H   -14.90834    0.11176    4.36290
       O   -14.66842    0.86909    3.76831
      H1   -15.46455    1.38154    3.65649
       H    -8.52610   -5.96138    5.59020
       O    -9.06144   -5.35706    6.12979
      H1    -8.40159   -4.67596    6.33919
       H   -11.62302   -6.43937    3.35023
       O   -10.94329   -5.75441    3.33705
      H1   -11.28773   -5.11323    3.98825
       H    -7.79485   -2.73216    6.25718
       O    -7.35986   -3.41491    6.80656
      H1    -7.79162   -3.34155    7.65948
       H   -10.00973    5.46664    5.14290
       O   -10.20814    5.67423    6.09758
      H1   -10.46054    6.64776    6.13310
       H   -15.38723    1.93758    8.15708
       O   -15.72119    1.07951    7.77172
      H1   -15.03667    0.87581    7.11771
       H   -10.12449   -3.13421    9.88038
       O   -10.79522   -2.58564   10.23644
      H1   -10.44007   -2.46192   11.09432
       H   -15.46524   -1.65338   10.18430
       O   -15.54926   -0.64380   10.08077
      H1   -15.80401   -0.59063    9.14019
       H    -9.92949   -0.43761   10.68846
       O    -9.23029    0.21433   10.82541
      H1    -9.52641    0.60299   11.65816
       H   -12.40290    4.74918    8.45224
       O   -12.16580    3.83459    8.64327
      H1   -11.84854    3.55073    7.76906
       H   -12.11096   -4.61996   -1.45672
       O   -12.56137   -5.11121   -0.77364
      H1   -12.38190   -4.62944    0.05504
       H    -7.64762   -0.71270    4.36831
       O    -7.17127   -0.72852    5.22185
      H1    -6.88940    0.20275    5.27420
       H   -18.16352   -3.44782    4.79553
       O   -17.49322   -3.02259    4.27651
      H1   -16.70222   -3.34337    4.68822
       H    -6.70333    0.43449    1.76895
       O    -7.59221    0.74387    1.58019
      H1    -8.10568    0.03516    2.00874
       H    -9.49994   -6.62661    3.60515
       O    -8.60055   -7.00760    3.61866
      H1    -8.75016   -7.91038    3.95224
       H   -15.34906   -3.21980    7.26863
       O   -15.36116   -2.24329    7.46233
      H1   -15.67008   -1.88730    6.62970
       H   -12.68871    6.24488    1.71520
       O   -13.26734    5.52793    1.36198
      H1   -12.60188    5.02516    0.88395
       H    -9.48412   -0.11621    7.60625
       O    -9.09211   -0.92096    7.18900
      H1    -8.70698   -0.55804    6.40113
       H    -9.37714   -1.23759   -1.26832
       O    -9.77245   -1.02737   -2.13438
      H1   -10.26327   -1.85896   -2.28995
       H    -6.90137    2.61256    2.08552
       O    -6.40347    3.28644    2.59970
      H1    -5.84106    3.64046    1.82681
       H    -5.80705    2.08919    6.26851
       O    -6.05507    1.80225    5.32820
      H1    -5.96773    2.61250    4.81545
       H   -16.34986    3.52413    6.54744
       O   -17.13050    3.43747    6.01905
      H1   -16.85667    2.84125    5.34682
       H   -17.39232   -0.96172    5.39536
       O   -16.61454   -0.47761    5.53362
      H1   -16.85190    0.18233    6.25701

