180
frame 1 | Written by MDAnalysis XYZWriter (release 2.4.3)
       H     7.22544   10.72515   -9.24238
       O     6.95164   11.50222   -9.79771
      H1     6.52824   12.05246   -9.12014
       H     9.71647   13.20376   -8.38334
       O     9.16156   13.10089   -7.64562
      H1     9.58991   13.65384   -6.99138
       H     8.77373   15.40059   -5.03125
       O     9.49907   15.65924   -4.44491
      H1     9.20751   16.26645   -3.76095
       H    15.86154   17.05696  -13.66382
       O    15.37502   17.18713  -12.80331
      H1    14.44172   17.37481  -13.17108
       H     7.90366   16.07854  -15.37993
       O     8.66892   16.02905  -14.78243
      H1     8.64565   16.95481  -14.42467
       H     9.94939   15.98001  -16.11440
       O    10.63712   15.85930  -16.75358
      H1    10.64424   14.87698  -16.79763
       H    13.91372   17.30683   -3.82143
       O    12.99608   16.94301   -3.77249
      H1    12.70408   17.20763   -2.89000
       H    17.62501   17.02274   -6.43030
       O    17.03775   17.70527   -6.86498
      H1    17.68343   18.07306   -7.49025
       H     7.05002   18.82288  -13.17363
       O     6.37891   18.68243  -12.52236
      H1     6.04734   19.55536  -12.47800
       H     5.62466   19.25203   -7.94430
       O     6.45049   19.80482   -7.95582
      H1     6.99905   19.44503   -8.65522
       H    12.40948   16.17430  -16.30691
       O    13.32893   16.09915  -15.91711
      H1    13.68188   15.42907  -16.52275
       H     1.93102   16.34979  -12.15018
       O     1.64208   17.15197  -11.59618
      H1     1.70116   17.89590  -12.21766
       H    11.22772   15.29088  -12.53067
       O    11.16721   14.38318  -12.27941
      H1    10.26083   14.16956  -12.02378
       H    16.65290   19.02602  -13.58319
       O    16.50391   19.93525  -13.35098
      H1    15.71142   19.99242  -12.82999
       H     7.12730   12.74573  -14.93381
       O     7.57146   13.06904  -15.70994
      H1     8.45801   13.35901  -15.51740
       H    11.76887   19.44123  -11.63563
       O    12.65696   19.81676  -11.59282
      H1    13.03631   19.00382  -11.14405
       H    11.73921   14.70708   -7.97404
       O    12.05020   14.65819   -7.02395
      H1    11.79690   15.53530   -6.65570
       H    11.14880   14.99456  -10.44986
       O    11.00905   15.50881   -9.64198
      H1    11.88378   15.96082   -9.58011
       H    11.73612   13.82359   -4.59709
       O    11.58148   12.87294   -4.37767
      H1    10.67721   12.61454   -4.52964
       H     3.43093   15.43133   -5.81130
       O     2.76172   14.75495   -5.69540
      H1     2.33824   15.14829   -4.89060
       H     5.00979   17.23147   -8.26883
       O     4.50549   18.05161   -8.26990
      H1     3.66257   17.71911   -8.63805
       H    12.64796   16.28412  -13.92606
       O    12.43906   16.81582  -13.16384
      H1    12.00392   17.57918  -13.66763
       H     3.77601   11.18144   -9.80604
       O     4.39194   10.41831   -9.80403
      H1     5.20008   10.90468  -10.05685
       H     9.40113   18.18923   -6.54698
       O     8.60459   18.54172   -6.09059
      H1     7.93623   18.64038   -6.79882
       H     9.00667   19.32392  -14.28144
       O     8.24500   18.98350  -14.75950
      H1     8.41512   19.36885  -15.64978
       H    13.52703   16.85773  -11.13514
       O    13.51144   17.54270  -10.46766
      H1    14.36663   17.46465   -9.94568
       H    15.37322   14.93227  -11.51513
       O    14.60606   14.48795  -12.03532
      H1    14.27107   15.28718  -12.40434
       H     8.52763   14.15342   -1.56520
       O     9.54360   14.14967   -1.66386
      H1     9.75766   14.57173   -2.52431
       H     9.29893   11.44888   -5.56199
       O     9.06507   11.86958   -4.70360
      H1     8.45172   12.64829   -4.94923
       H     5.55046   16.21524   -1.81230
       O     6.42514   16.54578   -1.76151
      H1     6.53035   16.93077   -2.66637
       H     2.59732   18.69028  -14.09258
       O     2.06039   19.14964  -13.43328
      H1     2.73055   19.54663  -12.78924
       H    14.67881   12.27955   -9.61793
       O    13.78078   12.12371   -9.99005
      H1    13.69025   12.81404  -10.66530
       H    10.83655   16.52422   -5.51438
       O    11.30747   17.12864   -6.18818
      H1    11.93888   17.64005   -5.62255
       H     6.60281   16.21558   -8.69319
       O     5.83650   15.78137   -8.25813
      H1     5.87012   14.82770   -8.26630
       H    11.43654   18.83142  -15.22686
       O    11.38569   19.03141  -14.27449
      H1    12.16223   19.53051  -14.04966
       H     8.69657   11.78634  -11.12096
       O     9.62996   11.81334  -10.97940
      H1     9.70458   11.29930  -10.18200
       H     8.49856   15.01080  -13.17140
       O     8.31461   14.39844  -12.47225
      H1     7.36222   14.51388  -12.21541
       H     5.26256   17.82886  -15.17299
       O     4.41552   18.25099  -14.98875
      H1     4.66037   19.16074  -15.21450
       H     6.13166   17.24755  -10.20682
       O     7.07006   17.58799  -10.20942
      H1     6.98022   18.14919  -11.08159
       H     7.19687   13.95728   -6.54294
       O     7.55999   14.00965   -5.63232
      H1     6.71816   13.66756   -5.07984
       H     5.39905   13.84172  -12.17186
       O     5.77062   14.37526  -11.43020
      H1     5.15202   15.13243  -11.42069
       H    12.20609   11.38713  -13.07349
       O    11.72984   10.67014  -12.67704
      H1    11.07144   10.97194  -12.03517
       H    15.78958   13.18806   -4.47432
       O    15.51177   14.07389   -4.35275
      H1    14.87715   14.19922   -5.12496
       H     9.76395   18.48718  -10.83595
       O    10.06137   19.09802  -11.51674
      H1     9.32588   19.72394  -11.45781
       H    13.70208   14.24596   -7.33268
       O    14.61307   13.96883   -7.16707
      H1    15.06653   14.70922   -7.59486
       H     2.30286   12.94691   -8.65051
       O     3.16543   12.87171   -9.11689
      H1     3.07132   13.36863   -9.94184
       H     5.99633   12.13161   -7.18603
       O     5.70661   12.85568   -7.85274
      H1     4.76234   12.94286   -7.73798
       H    10.29421   10.19691   -7.03034
       O     9.37906   10.43170   -6.97137
      H1     9.28607   11.27824   -7.52997
       H    13.07412   11.58178   -5.87343
       O    13.28437   10.68758   -6.07590
      H1    13.45311   10.59797   -7.05507
       H     6.64735   16.36396  -17.62146
       O     6.60788   16.16349  -16.65143
      H1     6.59296   15.17327  -16.71383
       H     4.93417   17.15484   -4.72621
       O     4.36208   16.91949   -5.46217
      H1     4.91491   17.32306   -6.13654
       H     3.66492   17.21902  -11.85192
       O     4.50752   16.88099  -11.48323
      H1     5.07016   17.28149  -12.21837
       H     9.90715   16.94484   -9.39677
       O     9.31751   17.71737   -9.19973
      H1     8.51067   17.38679   -9.56475
       H     7.03569   17.61986   -5.15727
       O     6.60813   17.74299   -4.27531
      H1     6.35433   18.71149   -4.20438
       H     1.30283   16.82920   -8.53893
       O     1.79085   17.58203   -8.87734
      H1     1.83780   17.36395   -9.78284
       H     8.64025   16.60063   -1.84337
       O     9.32181   17.13976   -2.27155
      H1    10.12244   17.02872   -1.73233
       H    10.99116   18.72767  -17.53244
       O    11.59250   19.26243  -16.92406
      H1    12.40939   19.08236  -17.42068
       H     4.28354   12.80622  -13.88136
       O     4.76452   13.62888  -13.99944
      H1     5.25423   13.39365  -14.80633
       H    16.12180   16.02443   -9.62058
       O    15.70269   16.29136   -8.80876
      H1    16.30128   16.79649   -8.27728
       H    13.59917   13.40480  -13.48835
       O    12.85124   12.96164  -13.90824
      H1    12.07205   13.35979  -13.46064

