180
frame 10 | Written by MDAnalysis XYZWriter (release 2.4.3)
       H    -9.47231    9.95498  -11.77039
       O    -9.89817   10.69076  -12.20137
      H1    -9.59749   10.47132  -13.11093
       H    -4.28902   18.28484  -12.55456
       O    -4.82150   19.04619  -12.78068
      H1    -4.32509   19.29302  -13.62586
       H    -5.22023   18.55860   -8.08349
       O    -4.25055   18.42250   -7.94232
      H1    -4.26468   18.73948   -7.06544
       H   -11.27264    9.61321  -12.31910
       O   -11.97778    8.89363  -12.47089
      H1   -11.62089    8.36799  -13.19403
       H   -17.40941   15.90563   -9.71510
       O   -18.35600   15.68442   -9.89456
      H1   -18.65407   16.21629  -10.68300
       H   -10.04784   13.03582  -15.82435
       O   -10.61541   12.52824  -16.46828
      H1   -11.46143   12.95237  -16.18019
       H    -5.48976   11.80198   -7.73543
       O    -4.67925   12.29311   -7.51717
      H1    -5.08495   12.88123   -6.85043
       H   -15.20489   14.99366  -12.54330
       O   -14.65391   15.59826  -11.92399
      H1   -14.52105   16.29311  -12.59545
       H    -6.55121   17.89527  -17.71830
       O    -6.86614   17.22561  -17.10611
      H1    -7.54197   17.70560  -16.57593
       H    -6.20686   17.49611   -5.59872
       O    -5.95797   16.66849   -5.08449
      H1    -5.98184   15.90367   -5.59933
       H   -13.60980   13.27659  -10.69300
       O   -12.74044   12.89665  -10.86586
      H1   -12.55635   13.14846  -11.78643
       H   -15.12881   18.77075  -10.21111
       O   -14.43100   18.32701   -9.71263
      H1   -14.74626   17.48963   -9.35451
       H   -12.56520   18.43111  -10.27691
       O   -11.69113   18.41435  -10.74901
      H1   -11.75630   19.32507  -11.17976
       H    -5.85369   15.81670  -13.20982
       O    -6.00842   15.10723  -12.61435
      H1    -6.95423   14.79535  -12.72201
       H    -7.76730    8.75446  -10.66444
       O    -8.34171    9.49637  -10.22819
      H1    -8.03765    9.35430   -9.29922
       H   -14.42540   15.06054   -5.09519
       O   -14.62210   15.97751   -5.16180
      H1   -15.45055   15.94080   -4.76632
       H    -6.82536   11.16251  -11.65768
       O    -6.72885   12.00127  -12.07399
      H1    -6.76060   11.69869  -13.00583
       H   -13.95646   19.55945  -14.15144
       O   -13.95089   18.60766  -13.97668
      H1   -13.72090   18.30936  -14.87111
       H    -7.23110   19.75246   -8.30120
       O    -6.78199   19.01979   -8.82444
      H1    -7.18914   19.08049   -9.73877
       H   -11.06786   10.54197   -6.50921
       O   -11.92432   10.75386   -6.06342
      H1   -12.57166   10.55351   -6.78337
       H    -8.48695   11.04684  -15.11128
       O    -9.28392   10.48302  -15.09054
      H1    -9.94164   11.14018  -15.44527
       H    -8.95277   14.70270   -7.07312
       O    -8.92796   13.71617   -6.73320
      H1    -9.73887   13.68697   -6.14968
       H    -3.61120   16.94318   -8.84949
       O    -3.11645   16.31936   -9.44883
      H1    -3.74280   15.53589   -9.43322
       H   -17.32744   18.02904  -13.41932
       O   -16.82425   18.37472  -14.12453
      H1   -15.87458   18.27471  -13.83719
       H   -12.03979   11.66493  -10.11649
       O   -11.41026   11.14926   -9.59947
      H1   -10.57663   11.61404   -9.80682
       H    -8.19221   14.46784  -10.94850
       O    -8.59863   13.83671  -11.61611
      H1    -7.85069   13.20326  -11.84856
       H    -9.31688   19.08397  -15.14935
       O    -8.88439   18.32713  -15.63842
      H1    -8.58606   17.86639  -14.76617
       H    -9.08741   17.01498   -7.76557
       O    -8.88260   16.14395   -8.15552
      H1    -9.27549   16.20077   -9.10663
       H    -9.23996   13.94639  -13.69718
       O    -8.99070   13.77841  -14.61352
      H1    -8.12107   14.16035  -14.62114
       H   -14.54801   17.68133  -16.77151
       O   -13.69944   17.47038  -16.37668
      H1   -13.07846   17.66441  -17.13169
       H   -10.15137   17.73792  -16.45796
       O   -10.89185   17.70829  -17.07454
      H1   -10.58262   16.92832  -17.55492
       H   -13.05238   15.99663   -4.32502
       O   -12.43525   15.44893   -3.79126
      H1   -11.98395   16.19219   -3.30730
       H    -5.69577   14.43775   -9.51058
       O    -4.70351   14.28207   -9.48571
      H1    -4.69629   13.52150   -8.83947
       H    -6.86281   13.53797   -6.11892
       O    -6.07327   13.95872   -5.76008
      H1    -6.15700   13.67354   -4.84522
       H    -7.44529   16.17675   -9.55313
       O    -7.13873   15.41078  -10.05171
      H1    -6.72757   15.79175  -10.82014
       H   -12.37391   17.85513   -6.98719
       O   -11.74268   18.44036   -6.50427
      H1   -12.31413   18.63176   -5.75066
       H    -6.21377   14.99765  -15.17626
       O    -6.41391   14.19378  -15.67766
      H1    -6.85048   14.52490  -16.50458
       H   -11.97045   14.91143  -13.22124
       O   -12.71246   14.22706  -13.19958
      H1   -13.41245   14.72936  -12.72977
       H   -13.09177   12.46413  -15.26193
       O   -13.09670   13.21144  -15.81206
      H1   -13.26799   13.90879  -15.19996
       H    -2.71828   16.19499  -12.76870
       O    -2.82472   16.90633  -12.08353
      H1    -2.81977   16.39953  -11.25943
       H   -10.69021   15.61822  -10.46165
       O   -10.04283   16.36209  -10.43822
      H1   -10.53354   17.21984  -10.57500
       H    -8.64443   12.86733   -9.96538
       O    -8.89876   12.34173   -9.18655
      H1    -9.21172   13.06090   -8.58497
       H    -3.65958   13.80630  -12.67051
       O    -3.23681   13.51343  -11.85311
      H1    -4.02015   13.36133  -11.35012
       H    -9.14516   12.21648   -4.98143
       O    -9.06573   12.28773   -4.03902
      H1    -9.56762   11.55125   -3.64285
       H    -6.45576   12.41735  -15.24613
       O    -6.43371   11.55588  -14.79725
      H1    -5.57479   11.53108  -14.35497
       H   -11.09874    9.38322   -9.23708
       O   -11.10352    8.55042   -8.75343
      H1   -10.47978    7.92277   -9.06784
       H   -11.09314   16.86838  -14.11208
       O   -10.88990   16.24637  -13.35311
      H1   -11.07009   16.87915  -12.65722
       H   -15.70708   12.59584   -8.99987
       O   -15.13895   13.25604   -9.34630
      H1   -14.61953   13.45079   -8.53894
       H   -12.39208   13.49780   -6.88805
       O   -12.94666   13.72540   -7.66282
      H1   -12.29455   13.33473   -8.27668
       H   -15.52202   15.41709   -9.27364
       O   -15.88004   16.16370   -8.81155
      H1   -15.87444   15.88585   -7.90587
       H    -8.15003   17.96165  -12.77466
       O    -8.31178   17.07024  -13.25692
      H1    -9.22784   16.84882  -12.85229
       H   -15.41054   12.29277  -11.04470
       O   -15.85142   12.08633  -11.87236
      H1   -15.48843   12.81119  -12.43162
       H    -5.46529   16.85669  -15.75644
       O    -5.12899   16.94633  -14.84343
      H1    -4.99328   17.92695  -14.86564
       H    -7.66523   18.92242   -5.44223
       O    -6.84795   19.27301   -5.84262
      H1    -6.76991   19.97338   -5.13930
       H   -16.54459   14.44529  -14.34520
       O   -15.62558   14.18547  -14.20377
      H1   -15.59478   13.30785  -14.61593
       H   -13.24939    9.90709   -8.65685
       O   -13.78505   10.05176   -7.87844
      H1   -14.24523    9.16492   -7.87154
       H   -12.70486   15.51944   -7.81122
       O   -12.96546   16.45668   -7.83896
      H1   -13.55881   16.33447   -7.04350
       H    -7.64875   10.42188   -7.10687
       O    -7.09954   10.90757   -7.67186
      H1    -7.81385   11.36495   -8.17356
       H   -11.90420   14.14344   -4.65577
       O   -11.52554   13.57211   -5.34828
      H1   -11.77993   12.69636   -5.08063
       H    -9.66766   17.37166   -4.53702
       O    -9.54089   18.04199   -5.22226
      H1   -10.20942   17.88758   -5.87315

