180
frame 5 | Written by MDAnalysis XYZWriter (release 2.4.3)
       H    -6.45974    2.09008    9.45901
       O    -6.78235    1.73772   10.29660
      H1    -7.70823    1.96627   10.36087
       H    -3.60285   -5.95172    5.46021
       O    -4.06937   -5.07701    5.37445
      H1    -4.93287   -5.23095    5.82663
       H    -2.59573   -2.56515    9.27656
       O    -2.84833   -3.51006    9.31205
      H1    -3.05965   -3.65550    8.36543
       H   -12.38001   -2.01730   16.53063
       O   -12.52918   -1.18693   16.09905
      H1   -12.27706   -1.21402   15.17941
       H   -10.43481   -1.76505    8.16057
       O   -10.38349   -1.94646    7.20165
      H1   -10.09936   -2.92467    7.25740
       H    -6.92468   -5.28983   14.66442
       O    -6.37176   -4.79441   14.00439
      H1    -6.50264   -3.82518   14.27502
       H    -4.35684   -2.78443   10.63908
       O    -4.73506   -2.28093   11.37988
      H1    -5.04087   -1.54865   10.89138
       H   -12.51530    2.57981    5.12004
       O   -12.65613    2.10838    5.95775
      H1   -12.79121    1.18731    5.60652
       H   -10.15920   -1.14946   10.66441
       O   -10.69008   -1.80083   10.17384
      H1   -11.54930   -1.38737   10.05192
       H    -3.42358    2.68288   13.25729
       O    -3.91500    1.99307   12.88459
      H1    -3.55840    1.18753   13.28852
       H    -4.13820    3.07436   11.43133
       O    -4.72702    3.45167   10.75587
      H1    -5.49618    2.89590   10.98532
       H    -9.93489    4.95207    9.67220
       O    -9.46607    5.87062    9.80532
      H1    -9.00719    5.71575   10.62742
       H    -9.13685    3.68700   14.12384
       O    -8.33701    3.42509   13.59630
      H1    -8.19402    2.52251   13.93281
       H   -11.17473    3.10497    9.07242
       O   -11.28841    3.94007    8.61444
      H1   -11.42004    3.66473    7.65956
       H    -9.01608    3.03034    6.59241
       O    -8.51702    2.35503    7.09150
      H1    -9.22075    1.84192    7.48583
       H    -6.32404    2.98373    6.89158
       O    -5.39222    3.01988    7.08581
      H1    -5.13175    3.97151    7.13772
       H   -11.19859    0.18371    8.21336
       O   -10.90013    1.03725    7.87960
      H1   -11.49779    1.26519    7.08796
       H   -11.36834   -6.71042    7.55481
       O   -10.80979   -6.61150    8.30661
      H1   -10.41340   -5.71861    8.07416
       H   -11.72352   -2.04917    3.61150
       O   -10.96657   -2.46634    4.01572
      H1   -11.14521   -3.40631    3.79174
       H   -11.32045    0.85112   13.14587
       O   -11.45201   -0.07643   13.38866
      H1   -10.62357   -0.50700   13.11189
       H    -6.88864    1.43713    4.08864
       O    -7.80801    1.60826    4.03318
      H1    -8.03712    0.67642    4.13075
       H   -11.44202   -5.49873   11.23620
       O   -11.49377   -6.45222   11.17452
      H1   -11.46484   -6.63833   10.22276
       H    -9.15634   -0.92409    3.64648
       O    -8.71600   -0.73655    2.81868
      H1    -8.69518   -1.62331    2.44969
       H   -10.07560   -3.78545   15.11840
       O    -9.62807   -2.95779   15.36953
      H1   -10.03535   -2.79954   16.22095
       H    -8.14668    6.39442   12.42687
       O    -7.68606    5.75586   11.87103
      H1    -7.91974    4.90790   12.35125
       H   -12.93136   -1.05498    4.95190
       O   -12.60521   -0.75592    5.84274
      H1   -11.90702   -1.40369    5.85765
       H    -9.10989    2.66275   11.74085
       O    -9.69232    2.23348   11.08953
      H1   -10.58614    2.38057   11.46687
       H    -6.34284   -5.02164   12.11865
       O    -6.20969   -5.22692   11.17988
      H1    -6.57830   -6.15440   11.25202
       H    -5.17659   -1.92107   14.66549
       O    -6.12495   -2.08984   15.04905
      H1    -5.78399   -2.34377   15.96852
       H    -4.78565   -1.10590    7.32239
       O    -5.61892   -0.65121    7.17583
      H1    -5.39560    0.26158    7.13602
       H    -8.81259   -1.04274    9.55272
       O    -8.11460   -0.92010    8.93048
      H1    -7.58172   -0.21570    9.34024
       H   -10.31998    0.83536    3.07047
       O   -10.70878    1.63746    3.47635
      H1   -10.03664    1.84058    4.17684
       H   -15.07114   -2.98712   12.76571
       O   -14.70408   -2.94641   11.89571
      H1   -13.90773   -3.48176   12.01138
       H    -8.34575   -2.89868   12.46237
       O    -8.33624   -3.77507   12.09356
      H1    -7.47760   -3.77595   11.64150
       H    -6.35725   -0.14651   12.78526
       O    -6.96610   -0.30629   12.06183
      H1    -6.70528    0.42582   11.44159
       H   -13.19088   -4.09882    6.54404
       O   -12.51339   -4.71033    6.74814
      H1   -12.68479   -5.36645    6.06413
       H    -8.98392   -8.97659    9.37641
       O    -8.51129   -8.20125    8.97186
      H1    -9.17548   -7.49351    9.00326
       H    -8.83550   -4.70518    6.48586
       O    -9.18152   -4.41691    7.36967
      H1    -8.31416   -4.21655    7.70858
       H    -7.21295   -2.55950    8.55030
       O    -6.89844   -3.52698    8.58296
      H1    -7.01006   -3.78933    9.52613
       H   -10.00019    4.42794    4.75036
       O    -9.99130    4.15025    5.64962
      H1    -9.96275    4.98771    6.13967
       H   -15.53082    1.25261    8.20443
       O   -15.22996    0.74867    8.98891
      H1   -14.38145    0.37675    8.73284
       H   -11.41237   -3.25236   11.17037
       O   -11.88439   -3.78697   11.81180
      H1   -11.09042   -3.87500   12.43307
       H   -13.58209   -1.20706   10.11769
       O   -13.28639   -1.29141    9.20032
      H1   -13.83512   -2.03133    8.90703
       H    -9.38281   -1.84418   14.01111
       O    -9.26295   -1.40289   13.15142
      H1    -8.49618   -0.77353   13.24627
       H    -5.61152   -6.00708    7.53909
       O    -6.25966   -5.61509    6.96510
      H1    -6.60135   -4.85905    7.52598
       H   -13.99786    4.03145    9.11128
       O   -14.60495    3.43128    9.57830
      H1   -14.45592    2.49744    9.17496
       H   -14.43804    1.09658   12.39141
       O   -14.54634    1.95179   12.78169
      H1   -15.26372    2.36457   12.23859
       H   -12.95450    2.38075   12.49614
       O   -11.99976    2.61793   12.38822
      H1   -11.95494    3.37885   13.01937
       H    -2.96136    0.23081    9.57837
       O    -2.25090   -0.42177    9.77086
      H1    -1.96195    0.06469   10.56621
       H    -7.12845   -1.57966    4.43179
       O    -6.17454   -1.85516    4.50618
      H1    -5.99951   -1.56376    5.41574
       H    -3.49732   -3.95528    6.47453
       O    -3.21114   -3.00944    6.63078
      H1    -2.79772   -2.89975    5.71035
       H    -3.22949   -0.72159   13.95532
       O    -4.16967   -0.95960   13.70780
      H1    -4.11448   -1.57516   12.89231
       H    -6.42179    0.71149   16.13976
       O    -6.92961    0.35471   15.35932
      H1    -6.60037   -0.57706   15.27995
       H   -15.01185   -2.28562    6.44026
       O   -14.23845   -2.77290    6.20559
      H1   -13.57229   -2.01717    6.25920
       H    -4.06641   -6.98792    9.04566
       O    -4.07023   -6.20335    8.45139
      H1    -4.36282   -5.55973    9.14030
       H    -9.14979    0.40383    6.08397
       O    -8.95552   -0.42074    5.64322
      H1    -9.36652   -1.06506    6.20095
       H    -4.24562    2.16017    9.84731
       O    -3.90989    1.60672    9.14846
      H1    -3.99490    2.24364    8.43497
       H   -12.92568   -0.51767   12.48908
       O   -13.77790   -0.60203   11.99392
      H1   -14.07840   -1.50201   12.16081
       H    -9.20843   -5.25369   12.94560
       O    -9.87833   -5.70223   13.44033
      H1   -10.38145   -6.10781   12.72626
       H    -4.90099    2.18426    5.05975
       O    -4.99988    1.84636    4.12012
      H1    -4.66630    2.59638    3.59413

