180
frame 5 | Written by MDAnalysis XYZWriter (release 2.4.3)
       H    16.63985  -18.53898   19.10101
       O    15.91994  -19.20208   19.20034
      H1    15.73944  -19.43558   18.23599
       H    11.81790  -15.89187   15.67588
       O    11.35203  -16.20575   16.41159
      H1    10.45466  -15.82022   16.18809
       H     8.58503  -15.25845   15.74791
       O     8.35800  -15.61166   16.61616
      H1     8.60984  -14.85843   17.17150
       H    10.78286  -16.83784    7.12043
       O     9.83426  -16.85077    7.38608
      H1     9.44008  -16.22249    6.74170
       H     7.99770  -18.64931   12.76471
       O     7.75042  -18.30553   13.63923
      H1     6.89005  -18.72156   13.89248
       H    12.54588  -13.17372   18.27240
       O    11.70267  -12.95098   18.66274
      H1    11.76663  -13.33118   19.57134
       H    18.50381  -14.54845   10.20639
       O    19.24156  -13.94836   10.10091
      H1    18.76620  -13.11611   10.19394
       H    15.11305  -17.96113   14.05594
       O    14.76797  -18.05428   14.95933
      H1    13.81757  -17.91185   14.77691
       H    15.65689  -13.66014   12.81013
       O    15.91953  -14.34808   12.18526
      H1    16.44094  -13.83905   11.57159
       H    16.79465  -13.79397   17.49198
       O    16.40918  -13.37269   18.27676
      H1    17.15545  -12.73113   18.50244
       H    11.94979   -9.92347    9.28854
       O    11.76198  -10.36202    8.40016
      H1    10.88989  -10.70499    8.61913
       H    14.77195  -17.01913    6.13200
       O    14.96955  -17.95956    6.28731
      H1    14.37584  -18.22036    6.91016
       H    14.17184  -12.03378   12.70333
       O    14.35513  -12.53752   13.50356
      H1    13.45769  -12.89888   13.70067
       H     5.52086  -11.84795   13.84651
       O     5.69695  -11.51969   12.89519
      H1     5.20943  -12.13126   12.39239
       H    15.86359  -15.73198   15.65604
       O    15.47675  -15.99516   16.49038
      H1    15.06544  -16.86584   16.21763
       H    11.04197  -16.04115   11.59139
       O    10.93158  -15.52128   12.43801
      H1    11.83584  -14.97531   12.50475
       H     5.28828  -18.52670    7.99151
       O     4.55036  -18.37304    8.59740
      H1     4.95755  -18.46204    9.47821
       H    11.22310  -13.78591   14.43719
       O    12.10289  -14.08940   14.69180
      H1    12.26854  -13.69415   15.55965
       H    17.63349  -19.35584   10.12441
       O    18.20923  -18.97653    9.38609
      H1    17.73076  -18.18926    9.06149
       H     9.33824  -10.58411   10.68719
       O     9.06489   -9.65437   10.66615
      H1     8.20046   -9.65198   10.13054
       H     8.82506  -13.36953   13.80864
       O     9.22840  -14.21019   14.13484
      H1     9.62253  -14.54662   13.28317
       H     5.43715  -17.42159   15.54028
       O     5.48105  -18.38666   15.77962
      H1     5.63693  -18.38673   16.76093
       H     9.42535  -10.25404   16.34871
       O     8.97436   -9.71928   15.64193
      H1     8.01845   -9.80956   15.84614
       H    17.55812  -15.73836    8.24717
       O    17.39202  -15.92080    9.18739
      H1    16.45695  -15.76733    9.35211
       H    13.27820  -13.51485   10.95967
       O    13.14982  -14.43939   11.19086
      H1    14.02106  -14.69455   11.52570
       H     8.56334  -19.39402   10.60117
       O     8.25005  -18.54612   11.01315
      H1     7.28332  -18.51878   10.80689
       H    17.46329  -16.15574   16.95939
       O    18.37674  -16.28333   17.28023
      H1    18.86516  -16.35493   16.39883
       H     5.49255  -13.24382   10.85566
       O     4.61593  -13.41248   11.17636
      H1     4.16235  -12.82791   10.54092
       H     8.43302  -15.36965   10.55010
       O     7.68634  -14.77188   10.80323
      H1     7.34026  -15.26592   11.56634
       H    16.79031  -15.09453   13.52079
       O    17.00882  -15.71351   14.27685
      H1    17.39478  -15.04309   14.85390
       H    15.83593  -11.43484   13.92161
       O    16.74498  -10.98361   13.85183
      H1    16.75164  -10.61600   12.91816
       H    13.81203  -14.88436    8.35464
       O    13.93249  -15.75748    8.80766
      H1    13.62127  -15.51651    9.72532
       H    10.09649  -18.24313   15.58610
       O     9.71049  -19.07958   15.26515
      H1     8.96826  -18.73219   14.64964
       H     8.88430  -11.02422   14.27546
       O     8.61931  -11.61753   13.58307
      H1     7.77310  -11.32395   13.22277
       H    12.92354  -16.44912    7.44864
       O    12.31281  -17.02379    6.94431
      H1    12.19941  -17.64733    7.67163
       H    12.37218  -18.39341    9.79966
       O    11.51176  -18.37977    9.39585
      H1    11.12294  -17.53219    9.68200
       H    18.65098  -17.83415   11.96989
       O    19.36465  -17.70029   11.29167
      H1    18.92453  -18.28321   10.60718
       H     5.83531  -12.08189   18.38223
       O     6.54111  -11.59847   17.87370
      H1     7.27613  -12.16455   18.02725
       H    15.70877  -10.69396   10.91921
       O    15.78254   -9.98836   11.58346
      H1    14.91733   -9.52846   11.48742
       H    11.89082  -17.83567   16.94980
       O    12.08021  -18.72201   17.33388
      H1    11.41899  -18.84217   17.94567
       H     9.21748  -12.68277   11.02448
       O     9.84922  -12.17703   10.49733
      H1     9.49231  -12.35664    9.65046
       H    18.60605  -13.62734   15.60033
       O    17.71573  -13.55289   15.88504
      H1    17.33723  -12.79820   15.35849
       H    13.56968  -12.52691    7.27937
       O    13.72540  -13.45036    7.01130
      H1    13.07511  -13.53457    6.31409
       H    14.31042  -11.85604   10.47939
       O    13.56989  -11.87531   11.04417
      H1    12.84602  -11.46855   10.49910
       H    11.94048  -10.00713   17.68491
       O    11.24815  -10.68675   17.49563
      H1    11.71202  -11.37932   17.94095
       H     5.37025  -18.20796   11.76426
       O     5.56278  -17.73538   10.99645
      H1     5.08134  -16.93986   11.07907
       H     9.70023  -19.64418    6.09849
       O     9.91554  -19.86408    7.04190
      H1     9.92997  -18.98931    7.39995
       H    10.96743   -8.77527   13.69997
       O    11.09782   -8.41499   14.65018
      H1    10.56467   -9.03241   15.15480
       H     9.07315  -17.13174   10.24557
       O     9.59893  -16.37708    9.98607
      H1     9.60335  -16.52781    9.01252
       H     4.95404  -15.98728   12.97845
       O     4.00691  -15.96791   13.23606
      H1     3.62053  -15.27738   12.64116
       H    16.67572  -12.88525    9.38304
       O    16.85716  -12.14106    9.97930
      H1    17.49507  -11.59274    9.46226
       H     8.68558  -13.90088   18.94485
       O     8.74345  -13.38294   18.13523
      H1     9.66640  -13.32117   18.08054
       H    17.58490  -17.23087   14.02297
       O    17.72195  -18.11247   13.63234
      H1    18.40020  -18.38874   14.29901
       H     7.03686  -16.73303    8.22395
       O     6.63345  -15.86607    8.38771
      H1     6.91422  -15.67472    9.27648
       H    14.27569  -14.30675   16.79424
       O    13.76853  -13.43896   16.77642
      H1    14.48175  -12.77617   17.06396
       H     6.53708  -15.29954   16.30372
       O     5.76492  -15.33114   15.71548
      H1     5.67219  -14.36007   15.48740
       H     8.57615  -17.33229   17.61761
       O     8.40832  -17.59556   18.52420
      H1     7.44911  -17.88781   18.48131
       H    13.97663  -19.15628   10.10053
       O    13.72064  -18.77449   10.93771
      H1    13.18411  -19.52534   11.32296
       H     6.53129  -15.50047   13.99610
       O     6.67090  -15.79737   13.09427
      H1     7.08630  -16.69819   13.30683
       H    11.93230  -16.72877   13.33068
       O    12.45939  -17.48204   13.67365
      H1    11.95605  -18.29653   13.41644

