180
frame 4 | Written by MDAnalysis XYZWriter (release 2.4.3)
       H   -16.73434    6.88459   -3.83687
       O   -16.87576    6.36206   -3.08679
      H1   -16.04276    5.97879   -2.87538
       H   -19.15421   12.48849    2.73831
       O   -18.73641   11.64494    2.92625
      H1   -17.92387   11.59089    2.44981
       H   -18.24892   11.21044   -7.13220
       O   -17.51848   11.50170   -7.69176
      H1   -17.52026   12.43998   -7.35864
       H   -12.38062    8.80596   -1.98914
       O   -13.09103    8.25968   -2.26417
      H1   -13.36071    8.52142   -3.13072
       H   -14.49567    4.21529   -0.38786
       O   -14.59532    3.52798    0.32233
      H1   -15.29144    3.88038    0.88308
       H   -13.88542    1.49716   -1.80374
       O   -14.84953    1.55761   -1.63721
      H1   -14.92233    1.96787   -0.80799
       H   -10.99277   11.18168    2.37603
       O   -11.07015   12.10437    2.22874
      H1   -10.59725   12.20466    1.39679
       H   -13.22452    6.93676   -5.48843
       O   -12.55812    6.23996   -5.64605
      H1   -12.89126    5.91457   -6.56250
       H   -14.06316   11.08729   -8.02949
       O   -14.68228   11.65631   -7.54272
      H1   -15.53431   11.28074   -7.74809
       H   -11.61640   13.31616   -3.18156
       O   -11.18447   13.14302   -2.29916
      H1   -11.48288   12.22399   -2.12414
       H    -9.47104    9.08395    2.71549
       O    -9.91661    9.31873    1.89892
      H1    -9.80833    8.61966    1.27753
       H   -16.08010    7.59186    5.60059
       O   -15.78900    7.56473    6.54429
      H1   -16.07001    8.41939    6.85074
       H    -8.63516   11.76973    0.28683
       O    -8.92814   10.94476   -0.21460
      H1    -9.12834   10.48522    0.64467
       H   -10.89786    5.64711    2.69721
       O   -10.24711    4.99769    2.42830
      H1   -10.71577    4.34312    1.94774
       H   -12.17829   10.29569   -6.52145
       O   -11.86897    9.62375   -5.92755
      H1   -11.34124   10.00429   -5.23819
       H   -18.45543    9.11023    4.18903
       O   -18.72183    8.26114    3.82512
      H1   -18.52622    8.26609    2.88321
       H   -16.40095   10.03519   -1.75800
       O   -15.99767    9.38127   -1.17016
      H1   -15.22388    9.13543   -1.66849
       H   -18.42905    5.51403   -6.54723
       O   -19.07590    5.99982   -6.02136
      H1   -18.92521    5.62317   -5.14232
       H   -17.03029    7.40049   -6.49365
       O   -16.78211    7.65916   -5.60215
      H1   -17.48118    8.20322   -5.23367
       H   -19.28076   11.02512   -1.77275
       O   -18.72520   10.93450   -2.54945
      H1   -19.32043   11.05900   -3.26996
       H    -8.77875   11.70685   -3.65376
       O    -7.98670   12.29245   -3.83376
      H1    -7.28251   11.82420   -3.30820
       H   -19.43085   12.63601    0.47815
       O   -19.43130   13.54908    0.65183
      H1   -18.61102   13.93879    0.25269
       H   -17.11360    3.44314    3.18483
       O   -17.14363    3.59031    2.23974
      H1   -16.91376    2.75535    1.84799
       H   -15.13835   15.73146   -3.59179
       O   -14.17393   15.50218   -3.41014
      H1   -13.60137   16.28758   -3.38797
       H   -12.05290    4.92982   -3.90510
       O   -11.85247    4.00739   -3.64879
      H1   -10.91066    3.92024   -3.84432
       H   -14.63274    9.88741   -0.17195
       O   -13.81957   10.00472    0.30562
      H1   -14.15808   10.67910    0.90129
       H   -17.14970   14.60530   -6.96851
       O   -17.87094   13.94997   -6.83156
      H1   -18.51797   14.32979   -7.43684
       H   -16.96539   14.14537   -1.46095
       O   -16.83763   14.08692   -0.49336
      H1   -15.95252   14.42887   -0.52780
       H   -14.98182    2.68642   -6.57703
       O   -15.95276    2.90657   -6.43031
      H1   -15.94788    2.92848   -5.45601
       H   -15.77345    6.61151    0.94518
       O   -15.14393    6.39758    1.62569
      H1   -14.38062    6.95426    1.40879
       H   -10.46344    7.00785   -5.03566
       O    -9.53494    6.72932   -5.02732
      H1    -9.45351    6.64292   -4.06210
       H   -12.20915    9.50871    3.70105
       O   -12.74112   10.23027    4.07214
      H1   -12.09486   10.92992    4.31595
       H   -16.90899   12.14905    0.73881
       O   -16.62487   11.34388    1.20839
      H1   -15.84973   11.70070    1.70276
       H    -9.62683    9.68646   -4.16405
       O   -10.18936   10.42079   -3.93557
      H1   -10.48708   10.09751   -3.06798
       H   -14.35628   16.16751   -0.42123
       O   -14.05619   15.35358   -0.75946
      H1   -14.26378   15.43657   -1.70081
       H   -15.33823    4.62562    4.43514
       O   -14.34254    4.72596    4.43389
      H1   -14.28440    5.30170    3.62071
       H   -17.77968    8.46019    0.54764
       O   -18.04904    9.05756    1.26379
      H1   -17.47031    9.80565    1.12846
       H   -15.82517    2.47768   -2.75302
       O   -16.11845    3.07564   -3.46597
      H1   -17.09444    2.84124   -3.43414
       H   -15.36218    7.39022    3.06643
       O   -15.53219    8.06069    3.66491
      H1   -16.30410    8.50403    3.36538
       H   -16.82351    6.13022   -0.87265
       O   -17.36654    6.56088   -0.18407
      H1   -17.99464    5.87959   -0.02881
       H   -11.34453   13.94687   -0.65071
       O   -10.66903   14.15871    0.08653
      H1   -10.71577   15.11725    0.00877
       H    -8.88818    6.92630    0.16179
       O    -9.19284    7.57551   -0.48592
      H1    -8.38060    8.08844   -0.65687
       H   -12.22577    6.13810    5.31181
       O   -12.11971    5.99832    4.36334
      H1   -12.79690    5.31040    4.26196
       H   -12.73109    7.15944    0.06763
       O   -12.68863    7.45664    0.98876
      H1   -12.90754    8.36152    0.81593
       H   -15.02329   11.54421   -5.65258
       O   -14.94421   11.52405   -4.64650
      H1   -14.61980   10.61397   -4.65744
       H   -12.68139   13.64813   -6.46502
       O   -12.63461   13.89697   -7.34874
      H1   -11.75072   13.67720   -7.70910
       H   -17.88608    7.95066   -2.89365
       O   -18.50392    8.42612   -3.54735
      H1   -18.59596    9.33369   -3.15693
       H   -13.73291   12.69719    2.23936
       O   -14.14591   11.81773    2.35494
      H1   -13.75532   11.39626    3.12692
       H   -13.58520    8.99996   -5.59303
       O   -14.23543    8.61184   -4.98586
      H1   -15.05831    8.50785   -5.48951
       H   -11.88233    4.50914   -0.35912
       O   -11.90215    5.08277   -1.09852
      H1   -11.94000    4.53524   -1.91854
       H    -9.18006   13.54523   -0.75775
       O    -8.31232   13.47408   -1.27294
      H1    -8.67870   12.97897   -2.07528
       H   -13.67705    5.74919   -2.03595
       O   -14.57708    5.31297   -1.93999
      H1   -14.50733    4.54354   -2.55119
       H   -13.43560   14.67525    0.71694
       O   -13.13698   14.26661    1.52989
      H1   -12.19390   13.99954    1.33367
       H   -17.87176   12.51005   -2.69969
       O   -17.27212   13.26940   -2.98089
      H1   -16.57272   12.78479   -3.39945
       H   -10.29109    5.35280   -2.30673
       O    -9.50104    5.84507   -2.59415
      H1    -9.31783    6.46746   -1.89130
       H   -12.02501   10.39556   -0.57198
       O   -11.44426   10.68018   -1.24389
      H1   -10.59549   10.73990   -0.73090
       H   -19.43195    4.69464   -2.88931
       O   -18.87173    4.63957   -3.64570
      H1   -18.08238    5.24384   -3.28088
       H   -18.60229    4.57451    1.30134
       O   -19.35357    4.93707    0.82067
      H1   -20.06430    5.02594    1.48911
       H   -12.95366   14.47565   -4.39585
       O   -12.63552   13.60194   -4.59195
      H1   -13.49072   13.13570   -4.46201
       H   -17.28443   11.24586    5.09199
       O   -17.63529   10.49325    5.56943
      H1   -16.84757   10.33242    6.16503

