180
frame 4 | Written by MDAnalysis XYZWriter (release 2.4.3)
       H     6.29769   -4.70428   -4.04344
       O     5.88913   -5.55141   -4.25084
      H1     5.06510   -5.30132   -4.76662
       H    -2.19636   -2.94789  -13.23448
       O    -2.42788   -2.43447  -14.05331
      H1    -2.05693   -1.53372  -13.91868
       H     2.06013    1.63284   -9.72225
       O     1.98841    2.45917  -10.20699
      H1     1.48752    2.16336  -11.02018
       H     0.01767   -3.02066   -6.65472
       O     0.65437   -3.11530   -5.90782
      H1     1.02948   -4.03578   -6.20085
       H     3.23934    1.73989  -12.78401
       O     4.12933    1.41128  -12.63941
      H1     4.34421    1.68663  -11.73648
       H     6.50701   -6.12792  -11.44600
       O     7.18476   -5.44442  -11.63742
      H1     6.90254   -5.10952  -12.53752
       H     9.92561   -2.34990  -11.46850
       O     9.81466   -2.27220  -10.48042
      H1     8.90926   -2.56249  -10.26515
       H    -2.13135  -10.87723   -8.13980
       O    -1.79653  -10.20677   -8.73477
      H1    -1.25861  -10.69664   -9.39458
       H     3.44029   -2.37500  -10.30609
       O     3.12934   -3.09146   -9.71403
      H1     2.78869   -2.56955   -8.97471
       H     0.71672   -3.05392  -12.60365
       O     0.33502   -3.04132  -11.67497
      H1     1.09682   -3.48138  -11.22694
       H     8.34394   -4.87100   -6.75284
       O     8.12231   -4.38145   -7.55748
      H1     8.87708   -3.76569   -7.57695
       H     5.42929   -2.81840   -6.45714
       O     6.28795   -2.52531   -6.72261
      H1     6.65722   -3.25969   -7.22764
       H     4.14177   -8.31695   -7.22978
       O     3.58837   -8.41038   -8.04915
      H1     3.79463   -9.28249   -8.39594
       H     3.11140   -3.94371   -4.63430
       O     3.52331   -4.18335   -5.49038
      H1     3.07748   -5.01246   -5.72395
       H    -3.03408   -4.64294  -10.13593
       O    -2.75228   -5.33421   -9.55170
      H1    -2.87262   -5.03754   -8.61552
       H     5.75300   -8.18985   -5.84054
       O     4.87768   -8.47568   -5.61327
      H1     5.02355   -8.72503   -4.69602
       H     1.59674   -0.84295  -10.09552
       O     0.88868   -0.47635  -10.60905
      H1     0.34370   -1.27283  -10.73313
       H     1.98508   -1.97931   -6.98800
       O     2.94995   -1.92047   -7.21227
      H1     3.34473   -2.77673   -6.90455
       H     2.50545   -5.01092  -10.48783
       O     2.06471   -5.69878  -10.91538
      H1     1.31190   -5.90931  -10.35882
       H    -1.55835   -7.95464  -13.31384
       O    -1.35699   -6.99500  -13.14453
      H1    -0.34908   -7.06732  -13.17286
       H     3.55763   -6.51085  -16.61081
       O     3.61980   -7.30359  -16.01762
      H1     3.88524   -7.95530  -16.66929
       H     1.97074  -10.22975  -10.13708
       O     1.10028   -9.88235  -10.49133
      H1     1.40437   -9.01000  -10.74549
       H     2.00306   -6.99831  -12.13379
       O     1.75124   -7.85052  -12.62871
      H1     2.31241   -7.76323  -13.39627
       H     2.26595    0.46033  -15.42228
       O     3.26858    0.65592  -15.41519
      H1     3.56290    0.80182  -14.51549
       H    -1.24895   -3.77906  -16.92398
       O    -1.35907   -4.26510  -16.08032
      H1    -1.58054   -3.58021  -15.43935
       H     4.03351   -0.57899  -12.24770
       O     4.15349   -1.55480  -12.19202
      H1     4.37323   -1.72341  -13.12951
       H     0.12586   -6.97729   -3.98909
       O    -0.36401   -6.65565   -4.78192
      H1    -1.26014   -6.59490   -4.40595
       H     6.50392   -1.21852  -10.18108
       O     6.01978   -0.50172  -10.66080
      H1     5.48485   -1.06851  -11.24196
       H    -1.28491   -3.98844  -11.96273
       O    -2.14338   -4.44043  -12.18192
      H1    -1.85375   -5.27607  -12.51623
       H     0.77959   -7.95518  -17.04089
       O     0.55819   -8.30330  -16.16949
      H1     0.42227   -7.49283  -15.64692
       H    -0.06147   -9.01981   -6.66980
       O     0.01199   -9.32383   -5.75882
      H1    -0.28480   -8.48962   -5.34125
       H    -1.45863   -2.42517   -8.83130
       O    -0.86123   -2.22933   -8.05939
      H1    -0.81123   -1.25518   -7.96013
       H    10.43406   -6.56362   -9.07663
       O     9.64181   -6.79854   -8.58209
      H1     9.24413   -5.88862   -8.51042
       H     1.90265   -8.53117   -7.93207
       O     0.97964   -8.26524   -8.12795
      H1     0.67622   -9.10084   -8.52550
       H     6.94242   -8.94130  -12.70374
       O     7.78449   -9.44995  -12.52848
      H1     8.04457   -9.57285  -13.43456
       H     4.01966  -10.44662   -6.20428
       O     3.59140  -11.31402   -5.88408
      H1     3.53182  -11.11256   -4.92897
       H    -0.57670    1.50145   -7.98525
       O    -0.85518    0.69102   -8.49450
      H1    -0.23530    0.73378   -9.26473
       H     8.93305   -6.19707  -12.20154
       O     9.82329   -5.84480  -12.49492
      H1    10.33247   -6.67788  -12.54225
       H    -2.56680   -3.75003   -6.51514
       O    -2.28856   -4.57601   -6.95127
      H1    -1.31481   -4.44753   -6.89268
       H     4.05818   -3.05914  -14.47018
       O     4.80587   -2.52602  -14.73674
      H1     4.48425   -1.94006  -15.39753
       H     1.10931   -5.70924   -7.47743
       O     1.51208   -5.63320   -6.61627
      H1     0.92541   -6.21706   -6.11016
       H     6.65486   -3.84842  -10.51945
       O     7.10695   -3.22815   -9.86148
      H1     7.18105   -3.88715   -9.17011
       H    -0.80787   -5.61501   -9.16221
       O     0.20253   -5.74495   -9.05392
      H1     0.30673   -6.70565   -8.91479
       H     2.10079   -1.24188   -4.52511
       O     2.47573   -0.37954   -4.79608
      H1     3.12308   -0.67274   -5.46428
       H     1.33180   -3.29932   -2.95600
       O     1.09999   -2.40931   -3.31037
      H1     0.84538   -2.65891   -4.20971
       H     6.33387   -3.64059  -14.42873
       O     7.02119   -4.29665  -14.10479
      H1     7.81347   -3.71633  -13.83979
       H     4.10270   -5.78107   -8.40812
       O     4.75369   -5.30959   -8.97052
      H1     4.26558   -4.46900   -9.05985
       H     2.09981   -9.46068  -15.47021
       O     2.62421  -10.12596  -15.00634
      H1     1.99917  -10.36874  -14.24819
       H    -3.43754   -7.15458  -12.00413
       O    -3.61743   -7.43067  -11.08746
      H1    -3.24125   -6.65344  -10.63533
       H     4.92915   -6.96406  -10.16729
       O     5.40800   -7.58159  -10.83916
      H1     4.79781   -7.76922  -11.52704
       H     4.47931    0.08113   -9.37345
       O     3.56736    0.38460   -9.20917
      H1     3.40865    0.20068   -8.25140
       H     4.07124  -10.74594  -10.38369
       O     3.43335  -10.78794   -9.60293
      H1     3.52410  -11.74139   -9.33166
       H    -0.25080  -10.58013  -13.28055
       O     0.64592  -10.90015  -13.02625
      H1     0.64704  -10.55212  -12.08688
       H    -3.72989   -1.39274   -9.47147
       O    -3.79906   -2.33137   -9.63642
      H1    -4.23897   -2.27585  -10.54480
       H     4.93699   -8.00689  -14.31612
       O     5.62911   -8.44108  -13.74515
      H1     5.14036   -9.15812  -13.31993
       H     7.52603   -9.25870   -9.14989
       O     6.59001   -9.44008   -8.88559
      H1     6.25465   -8.69993   -9.46491
       H     7.89461   -8.21036   -7.10549
       O     7.70693   -8.19595   -6.15578
      H1     8.47727   -8.58385   -5.65680
       H     1.57951   -5.46523  -15.91011
       O     0.86751   -5.66618  -15.25840
      H1     0.12228   -5.17046  -15.69990
       H     4.62295  -11.17610  -12.34795
       O     4.98621  -10.38210  -11.87681
      H1     5.92495  -10.58920  -11.79066
       H     0.27913   -3.62712  -14.83532
       O     0.74321   -2.84674  -14.35934
      H1     0.50172   -2.05269  -14.85948

