180
frame 1 | Written by MDAnalysis XYZWriter (release 2.4.3)
       H   -18.58093   -7.58335  -13.35515
       O   -18.14145   -6.74014  -13.46055
      H1   -17.44546   -7.01378  -14.16122
       H    -9.99264   -6.02555  -19.44648
       O   -10.16307   -6.80559  -18.82966
      H1   -10.39094   -7.58442  -19.35988
       H   -15.47280   -0.54032  -17.70836
       O   -15.74268   -0.23085  -18.61604
      H1   -16.72853   -0.19829  -18.46820
       H   -16.58787   -3.41171  -15.04303
       O   -15.72228   -3.41877  -15.43279
      H1   -15.84347   -3.84291  -16.27823
       H   -11.39349   -8.56040  -11.66827
       O   -11.60474   -9.26809  -12.28163
      H1   -12.46867   -9.49039  -11.95145
       H   -11.45942   -1.15922  -15.40811
       O   -11.87134   -0.80947  -16.23905
      H1   -12.68044   -0.34136  -16.03924
       H   -19.07170   -5.80683  -15.57098
       O   -19.51890   -5.83552  -16.43501
      H1   -18.72184   -6.10532  -16.95053
       H   -18.83058   -2.73732  -13.80320
       O   -18.01915   -3.26144  -13.54140
      H1   -17.44081   -2.51191  -13.29628
       H   -10.37656   -9.88508  -16.35720
       O   -10.07420   -9.09524  -15.76359
      H1    -9.89413   -9.66693  -15.04348
       H   -11.09272   -6.47511  -12.47072
       O   -11.60044   -6.52460  -11.61187
      H1   -12.57099   -6.60972  -11.88471
       H   -14.87103   -3.22078  -18.43733
       O   -15.48594   -3.92551  -18.21357
      H1   -15.06854   -4.70161  -18.55445
       H   -11.74059  -11.14442  -18.63793
       O   -12.49732  -11.54781  -19.11178
      H1   -13.16046  -10.88243  -18.89469
       H   -17.20569  -17.99732  -18.26428
       O   -17.92698  -17.42593  -17.91349
      H1   -17.98153  -16.74232  -18.60397
       H   -16.69341   -0.81999  -12.39004
       O   -16.54382   -1.02549  -13.36096
      H1   -16.93112   -0.25321  -13.83935
       H   -16.54779   -7.05097   -9.34844
       O   -16.43834   -7.52242  -10.17491
      H1   -16.45187   -8.50508   -9.98142
       H   -17.08048   -7.76923  -18.16064
       O   -17.24699   -6.87464  -17.82560
      H1   -16.76510   -6.90291  -16.93664
       H   -10.24701  -11.66790  -17.75514
       O   -10.54799  -10.72214  -17.76562
      H1    -9.80305  -10.36927  -18.30961
       H   -16.08774  -12.56313  -12.96490
       O   -15.66649  -12.97442  -12.15503
      H1   -14.74824  -13.21146  -12.41044
       H   -15.50380   -1.60946  -10.69821
       O   -16.41327   -1.46960  -10.41276
      H1   -16.86456   -2.28511  -10.66483
       H   -18.04858   -3.77729  -11.74144
       O   -18.02847   -3.70514  -10.76207
      H1   -18.00658   -4.69301  -10.62310
       H   -12.30444   -1.82454  -13.77583
       O   -12.43006   -1.02950  -13.20850
      H1   -11.45560   -0.79996  -13.11358
       H   -16.70953  -13.14632  -15.61523
       O   -15.80389  -13.14079  -15.11373
      H1   -15.58801  -14.02858  -15.39644
       H   -10.08333   -3.87062  -14.31432
       O    -9.18821   -4.12211  -14.52289
      H1    -9.12969   -3.89454  -15.46427
       H   -14.92100  -11.73721  -15.82638
       O   -14.01175  -11.36456  -15.92846
      H1   -13.99542  -10.78954  -15.15157
       H   -10.10232  -12.66981  -13.14825
       O   -10.58754  -11.90616  -13.54745
      H1   -10.59794  -11.23567  -12.86634
       H   -16.34833   -9.61480  -12.73465
       O   -15.49871   -9.11094  -12.89765
      H1   -15.49862   -8.35933  -12.23087
       H   -15.58152  -10.73426   -9.76828
       O   -15.97078  -10.01078   -9.24561
      H1   -15.13426   -9.72351   -8.83289
       H   -18.10881  -11.85572  -19.14328
       O   -17.39628  -11.85969  -18.46819
      H1   -17.61684  -12.70458  -17.95847
       H   -14.56174  -11.66188  -11.41815
       O   -14.03105  -10.89407  -11.37024
      H1   -14.64246  -10.16245  -11.71802
       H   -10.01522  -13.18700  -16.01054
       O   -10.25957  -13.41394  -16.91364
      H1   -11.22275  -13.45942  -16.80145
       H   -12.79758  -15.50851  -18.27048
       O   -13.62809  -15.84989  -18.70163
      H1   -14.14718  -15.02087  -18.66506
       H   -18.74697  -11.91016   -9.73021
       O   -19.23479  -11.12669  -10.07153
      H1   -19.19817  -10.40408   -9.41160
       H   -18.62531   -0.28114  -19.31145
       O   -18.58884   -0.32846  -18.36009
      H1   -19.09481   -1.08721  -18.26530
       H   -12.69583   -8.72258  -14.08083
       O   -12.57546   -8.48024  -15.02092
      H1   -11.59844   -8.69145  -15.12910
       H   -13.33018   -1.69899  -11.95883
       O   -13.94933   -2.10324  -11.31299
      H1   -13.37313   -2.48544  -10.65491
       H   -16.98192    1.37206  -15.82092
       O   -17.31100    1.09208  -14.97497
      H1   -16.80181    1.58583  -14.33572
       H   -17.08769  -10.23203  -18.77886
       O   -16.71239   -9.38564  -18.69496
      H1   -15.78554   -9.57697  -18.45182
       H   -14.95078   -3.48066  -12.15722
       O   -15.13260   -4.31033  -12.64870
      H1   -15.29779   -3.92759  -13.49474
       H    -8.92210   -7.33430  -17.89660
       O    -8.31099   -7.88235  -17.34433
      H1    -8.86232   -8.30515  -16.62082
       H   -13.50767   -9.29724  -18.42385
       O   -14.28274   -9.83788  -18.16330
      H1   -13.97228  -10.18780  -17.33049
       H    -8.74573   -1.86942  -16.43508
       O    -9.40934   -2.58378  -16.68563
      H1    -9.74130   -2.23851  -17.55468
       H    -7.89077   -9.37488  -18.55009
       O    -8.23333  -10.11667  -19.03493
      H1    -7.66982  -10.23068  -19.85622
       H   -18.47545  -10.68398  -13.18062
       O   -18.00063  -10.30136  -12.45347
      H1   -18.42428  -10.78110  -11.72880
       H   -17.80595   -9.64981  -16.22325
       O   -18.49537  -10.32016  -16.43213
      H1   -18.07850  -11.03403  -16.94738
       H   -11.40498   -3.50908  -12.73840
       O   -11.61392   -3.40324  -13.67285
      H1   -12.07375   -4.19805  -13.99111
       H   -16.97811  -14.69348  -11.96425
       O   -17.67262  -14.95111  -11.35855
      H1   -17.67230  -14.17854  -10.74367
       H   -15.28044   -6.78280  -15.24623
       O   -15.99520   -7.42669  -15.10757
      H1   -15.70612   -7.90047  -14.32636
       H   -13.52147  -13.08550  -16.25950
       O   -12.97923  -13.82620  -16.55891
      H1   -12.92360  -14.23436  -15.67549
       H   -15.52229   -6.53132  -18.58909
       O   -14.78326   -6.20287  -19.10411
      H1   -14.08982   -6.73967  -18.87593
       H   -14.14950  -12.68811  -18.72454
       O   -15.05491  -13.10176  -18.93671
      H1   -15.66339  -12.40642  -18.64933
       H   -17.93933  -15.99096  -15.47537
       O   -18.84862  -15.85428  -15.13764
      H1   -18.84644  -14.89103  -14.96010
       H   -13.30107   -5.48818  -16.17185
       O   -13.74778   -6.04869  -15.45016
      H1   -13.05926   -6.72461  -15.33091
       H   -14.20096   -6.17169   -9.86961
       O   -13.88156   -5.69355   -9.06094
      H1   -14.09642   -6.42931   -8.45168
       H   -16.68746  -16.44584  -16.88556
       O   -16.10407  -16.04993  -16.22852
      H1   -15.25288  -16.31082  -16.48114
       H   -11.76410   -3.44972  -16.60288
       O   -12.36376   -4.15256  -16.75268
      H1   -13.00125   -3.67651  -17.28613
       H   -15.16171   -6.96885  -11.08949
       O   -14.39404   -6.77923  -11.64915
      H1   -14.72974   -5.96528  -12.07704
       H   -18.15166  -14.42874  -17.55450
       O   -18.44206  -13.79248  -16.89266
      H1   -19.19278  -13.39336  -17.33107
       H   -14.91532   -1.63499  -15.93862
       O   -14.82036   -0.67890  -16.04747
      H1   -15.32429   -0.47675  -15.21773
       H   -12.56534   -7.70399  -16.76325
       O   -12.56419   -7.47942  -17.66802
      H1   -11.65703   -7.09854  -17.85771
       H   -19.47942   -6.58101  -11.00502
       O   -18.88292   -6.43629  -10.26776
      H1   -18.04879   -6.74263  -10.58209

