180
frame 4 | Written by MDAnalysis XYZWriter (release 2.4.3)
       H     7.85014   13.16276   -9.18816
       O     8.47946   13.89886   -9.06928
      H1     7.84987   14.58105   -8.85024
       H     8.83555   15.02264   -4.64393
       O     9.67544   15.52456   -4.67089
      H1     9.44024   16.32515   -4.14228
       H     7.41001   16.30020    2.76134
       O     7.05105   15.39278    2.91441
      H1     7.83270   14.83008    3.18138
       H    12.46081   14.93898    0.59203
       O    12.16689   14.60919    1.49578
      H1    12.08596   15.49983    1.87947
       H    13.88311   17.09707   -5.52343
       O    14.27699   17.54980   -4.71921
      H1    13.50770   17.41699   -4.13315
       H     6.65466   13.66819   -2.47372
       O     7.03686   12.74764   -2.36803
      H1     7.16123   12.44803   -3.30155
       H    12.41198   17.81187    2.21713
       O    11.97889   17.03844    2.62289
      H1    12.25891   17.24104    3.55930
       H     7.92654   13.09347    0.84461
       O     8.08198   12.10938    0.94210
      H1     7.49563   11.87269    1.63840
       H     3.72368   14.82805   -1.50505
       O     3.77887   15.69827   -1.91935
      H1     2.88513   15.94248   -2.04233
       H     2.21593   19.20984   -4.81005
       O     1.24637   19.29367   -4.73784
      H1     0.96591   19.11171   -5.63633
       H     1.17834   18.17639   -1.48744
       O     0.72021   18.20842   -0.63105
      H1    -0.01010   18.84191   -0.76602
       H     2.94640   14.31517    1.01313
       O     2.78881   13.85209    1.87763
      H1     3.49745   14.23940    2.48997
       H     6.50689   17.38927    5.08727
       O     6.32433   17.97160    4.31954
      H1     7.16451   18.15885    3.89216
       H    13.87124   14.79199   -1.34159
       O    12.88697   14.99373   -1.37733
      H1    12.50024   14.17780   -1.63784
       H     2.98504   19.50707    4.02881
       O     3.54784   19.44606    4.78783
      H1     4.31428   18.99002    4.27968
       H     4.27223   11.56132   -1.75037
       O     3.77329   12.14910   -2.34009
      H1     3.12975   11.48581   -2.64412
       H    12.05118   19.56141   -0.64240
       O    12.44280   18.72801   -0.30418
      H1    13.27872   18.96839    0.08297
       H    11.64979   12.06198   -2.29957
       O    11.81876   11.48317   -1.48456
      H1    11.25234   11.95352   -0.85904
       H     9.68796   13.79005   -7.56711
       O    10.09360   13.48229   -6.73966
      H1    10.58228   14.29835   -6.49718
       H     5.12639   11.42516    0.15360
       O     5.53400   11.13085   -0.68515
      H1     5.92012   11.90257   -1.02660
       H    11.36842   16.33420   -9.25921
       O    11.45724   16.09619   -8.32933
      H1    11.11304   16.86767   -7.89621
       H    10.15025   16.11128    0.29610
       O     9.37294   16.59978   -0.06626
      H1     9.37324   17.36079    0.52774
       H     4.21232   10.99210    1.89359
       O     4.74267   11.83090    1.82503
      H1     3.97273   12.45297    1.90766
       H     2.52802   13.24302   -1.77178
       O     1.76533   13.70098   -1.34994
      H1     1.56377   13.01848   -0.66382
       H     0.43671   13.84877   -2.32195
       O    -0.00661   13.99056   -3.18508
      H1    -0.56143   13.18521   -3.16982
       H     8.55429   13.48007    4.51070
       O     9.10528   13.79023    3.78744
      H1     9.62976   14.48418    4.26458
       H    11.21939   13.59829   -3.96695
       O    11.56906   12.69026   -3.82805
      H1    10.86042   12.19467   -4.27297
       H     2.57006   14.09521   -5.04512
       O     1.95136   13.36879   -5.06421
      H1     1.39976   13.57056   -4.30403
       H     1.73937   18.83187    0.93551
       O     2.26099   19.61426    1.31055
      H1     3.06574   19.27156    1.70729
       H     4.83113   17.99302    1.01529
       O     4.80790   18.90947    1.31642
      H1     4.80814   19.34972    0.49968
       H     4.91283   17.55973   -7.33659
       O     4.06988   17.93934   -7.07532
      H1     3.44708   17.69491   -7.76088
       H     4.68136   12.03255   -4.10626
       O     5.35626   12.17383   -4.79845
      H1     4.98150   11.79912   -5.58748
       H     9.00219   18.31456    2.53389
       O     8.19922   17.85849    2.38618
      H1     7.67285   18.50084    1.83937
       H     8.85015   13.09796   -1.11473
       O     9.72486   13.36533   -1.43134
      H1     9.46497   13.50664   -2.32556
       H     9.89082   10.64154   -5.63487
       O     9.69013   10.79590   -4.63985
      H1     8.88733   11.27384   -4.74548
       H     5.39775   15.84579   -3.48183
       O     6.40807   15.91987   -3.40600
      H1     6.52456   16.80325   -3.78695
       H    -1.40388   18.32155   -2.58658
       O    -2.01318   17.62375   -2.72042
      H1    -1.61349   17.10273   -3.48125
       H     4.23300   16.25971   -0.40833
       O     4.50347   16.28394    0.52092
      H1     5.28677   15.73129    0.51132
       H    10.04066   12.45627    1.18682
       O    10.96533   12.28755    1.19937
      H1    11.29810   13.25147    1.36504
       H     8.94770   17.98124   -6.93878
       O     9.70736   17.88763   -6.40777
      H1     9.42263   17.07809   -6.01844
       H     5.29371   14.73563   -8.23380
       O     6.16503   15.12975   -8.07072
      H1     6.02938   15.09834   -7.07158
       H     1.89859   17.37846    4.63939
       O     2.42817   16.73687    5.10616
      H1     2.93246   17.29619    5.74584
       H     8.36332    9.44347   -0.52909
       O     7.63691    9.30061    0.06984
      H1     7.26133   10.20304    0.04960
       H    10.84645   19.15373   -7.28589
       O    11.11625   19.81809   -7.98855
      H1    11.78328   19.31632   -8.51001
       H     8.67830   13.18636   -5.69386
       O     8.08596   13.04480   -4.99481
      H1     7.20038   13.14510   -5.38617
       H     7.15604   15.13120    1.11172
       O     6.99121   14.92373    0.20210
      H1     7.39722   15.74490   -0.19138
       H     8.72128   18.50500   -9.42358
       O     8.98642   19.28731   -9.90751
      H1     9.51677   19.91451   -9.45636
       H     0.68568   16.36874   -3.30975
       O     1.53080   16.86581   -3.32017
      H1     1.28092   17.62074   -3.95793
       H     3.62311   16.04997    4.03388
       O     4.18750   15.30624    3.79673
      H1     5.02671   15.72347    3.49188
       H     0.66923   18.07090    2.92938
       O     0.73299   18.60892    3.75235
      H1    -0.01545   18.31170    4.33723
       H     3.34012   13.47568   -7.65079
       O     3.72562   14.34903   -7.52619
      H1     2.93478   14.89356   -7.72829
       H     2.82988   15.95574   -5.01030
       O     3.78822   15.96288   -5.09842
      H1     3.96764   16.60059   -5.77691
       H    12.70139   16.43580   -2.35646
       O    12.61064   17.35015   -2.65364
      H1    12.68638   17.83273   -1.79888
       H    -0.78266   14.28209    1.62253
       O    -0.23683   13.50026    1.45522
      H1     0.62831   13.90932    1.67424
       H     6.89365   18.25051   -8.99474
       O     7.40781   17.63708   -8.50654
      H1     6.82892   16.81599   -8.43500
       H     6.81208   19.36899   -4.91024
       O     6.51990   18.60639   -4.35413
      H1     5.79788   19.00876   -3.91294
       H     9.78451   17.05616   -2.02990
       O     9.85547   17.64186   -2.82539
      H1    10.82522   17.68155   -2.96242
       H     0.13908   16.33981    1.09719
       O     0.31778   16.40947    2.06129
      H1    -0.56765   16.42168    2.37237
       H     5.99060   11.50664    3.16990
       O     6.53635   11.44167    3.98225
      H1     6.01830   10.84492    4.59180
       H     7.44248   19.22774   -1.99176
       O     6.71847   18.83233   -1.44272
      H1     6.63671   17.94622   -1.84482

