180
frame 4 | Written by MDAnalysis XYZWriter (release 2.4.3)
       H   -16.61495   -7.23271   -3.08141
       O   -16.03978   -6.98658   -3.80320
      H1   -16.15485   -7.76212   -4.39810
       H   -14.63834   -3.54081   -3.35044
       O   -15.08207   -3.05580   -2.64545
      H1   -15.06818   -3.62865   -1.84549
       H   -12.63181   -7.62292   -1.73508
       O   -12.18029   -8.46836   -1.62394
      H1   -11.35306   -8.36880   -2.14120
       H   -16.74469   -6.02560    0.28674
       O   -16.37517   -5.85627    1.13316
      H1   -16.13599   -6.79674    1.29879
       H    -8.67726   -9.70979    1.71459
       O    -9.19396  -10.10526    2.49839
      H1    -9.11806   -9.33988    3.13375
       H   -11.12813  -14.13510    0.87577
       O   -11.53411  -13.32888    1.20528
      H1   -11.25306  -13.21794    2.17709
       H   -17.34378   -2.17089   -0.06014
       O   -17.75046   -2.69344   -0.70571
      H1   -18.60649   -2.75942   -0.26325
       H   -12.05421  -12.06064   -1.76981
       O   -11.84070  -12.47691   -2.65906
      H1   -12.16420  -13.37465   -2.61846
       H   -12.45068   -4.41690    0.67532
       O   -11.52728   -4.22418    0.52957
      H1   -11.21154   -4.76140    1.26275
       H   -13.73585   -6.78859    4.25241
       O   -13.77534   -5.81796    4.10979
      H1   -14.62488   -5.66322    4.55484
       H   -17.61757   -3.82641    4.80685
       O   -18.53967   -3.85304    5.14381
      H1   -18.98682   -3.15909    4.62967
       H   -18.20041  -13.59787   -1.79836
       O   -17.80664  -13.93556   -0.96581
      H1   -18.57216  -14.08492   -0.40906
       H   -11.67256   -6.65397    7.89755
       O   -10.84206   -6.96228    8.39694
      H1   -10.27617   -6.21017    8.10453
       H   -16.89297  -13.91093    6.12225
       O   -17.66025  -13.62763    6.73805
      H1   -17.64435  -12.65074    6.62769
       H    -8.65016   -8.18127    5.04452
       O    -9.14363   -8.09265    4.19914
      H1   -10.04554   -8.23180    4.58027
       H   -13.23326  -10.77871    0.36767
       O   -14.00581  -10.75783    0.99008
      H1   -14.75249  -10.97491    0.41785
       H   -18.39218   -6.72444    7.96198
       O   -17.87553   -7.42718    7.56015
      H1   -18.30678   -7.59085    6.70119
       H   -19.03156   -4.39141    6.88722
       O   -19.10250   -4.92428    7.71442
      H1   -19.28207   -4.23162    8.42847
       H   -13.02325   -9.07885   -3.29723
       O   -13.09191   -9.29468   -4.25168
      H1   -14.04217   -9.13012   -4.37090
       H   -18.23010   -8.08274    4.45316
       O   -18.99473   -8.08136    5.03569
      H1   -19.36585   -7.23521    4.81395
       H   -17.96639  -10.83444    7.76173
       O   -17.36222  -11.06369    7.00079
      H1   -17.88239  -10.66439    6.22635
       H   -16.04857   -8.67927    2.66572
       O   -15.57711   -8.48793    1.82101
      H1   -14.88943   -9.16503    1.73361
       H   -19.49136  -13.55245   -4.29493
       O   -19.06737  -13.14924   -3.53225
      H1   -19.01858  -12.24145   -3.79612
       H   -15.32620   -4.63238    0.35786
       O   -14.65334   -4.11781   -0.11306
      H1   -14.90928   -3.24140    0.25678
       H   -16.19951   -9.66415    7.14181
       O   -15.38158   -9.21364    6.88027
      H1   -14.69863   -9.75530    7.26125
       H   -14.89459  -13.07016    0.00423
       O   -15.27848  -12.72528   -0.85497
      H1   -16.24907  -12.85089   -0.70375
       H   -16.34622   -6.63208    6.43356
       O   -15.91530   -5.86289    6.00571
      H1   -15.79260   -5.19914    6.74962
       H    -9.58790   -7.58568   -2.36282
       O    -9.67324   -8.55944   -2.47926
      H1    -9.81993   -8.53458   -3.48371
       H   -14.48776   -1.11811    0.95700
       O   -15.41806   -1.35544    1.18273
      H1   -15.17882   -1.95528    1.88847
       H   -19.33076  -10.61765    1.43789
       O   -18.94675  -11.23294    0.81636
      H1   -19.57115  -11.31227    0.07851
       H   -10.11450  -11.48196    3.21445
       O   -10.76702  -12.14743    3.53047
      H1   -10.42158  -12.20574    4.43457
       H   -16.94228  -11.30276    1.39501
       O   -16.41529  -11.75562    2.06539
      H1   -17.11369  -11.99160    2.70477
       H   -10.72540  -11.38532   -0.06334
       O   -11.40406  -10.70831   -0.20142
      H1   -10.90509  -10.00878   -0.63700
       H   -14.40197   -7.75259    7.44635
       O   -13.76477   -7.18619    7.96162
      H1   -13.69902   -6.38561    7.45812
       H   -18.35999   -5.29514    3.53001
       O   -17.98830   -6.11990    3.20028
      H1   -17.56256   -5.97169    2.37467
       H   -14.63242  -15.68027    2.77321
       O   -14.56914  -15.71500    3.77505
      H1   -14.71467  -14.77317    3.93056
       H   -14.67960  -14.33553   -3.57344
       O   -14.07769  -14.39713   -2.79283
      H1   -14.40647  -13.58133   -2.29994
       H   -12.98134  -12.57809    5.88755
       O   -13.29746  -13.31903    5.34460
      H1   -12.86538  -14.09069    5.69115
       H   -14.97354  -15.37524   -1.63258
       O   -15.69569  -15.93848   -1.30768
      H1   -16.31004  -15.23834   -0.94897
       H   -15.01196  -12.92683    4.82121
       O   -15.84086  -13.38331    4.69101
      H1   -16.50376  -12.70261    4.60278
       H   -10.53168   -8.54976    0.93612
       O   -10.74650   -7.66774    0.67334
      H1   -11.33296   -7.78591   -0.09157
       H   -13.35807   -4.32118    6.68684
       O   -12.87726   -5.13249    6.55433
      H1   -12.97520   -5.16373    5.61851
       H   -12.97902   -2.54367    3.11120
       O   -12.31257   -1.85100    2.96018
      H1   -12.79069   -1.08165    2.47897
       H   -18.09970   -8.41483   -1.09029
       O   -17.32414   -8.08742   -0.56596
      H1   -17.21369   -8.75351    0.13372
       H   -11.24994   -6.66926    2.11542
       O   -11.26532   -6.03572    2.90361
      H1   -12.15808   -6.22759    3.27791
       H   -15.76511  -10.33523    4.03076
       O   -16.36512   -9.65854    4.40371
      H1   -15.96664   -9.47077    5.29509
       H   -19.14587   -4.90280   -2.55436
       O   -19.89653   -5.43822   -2.28545
      H1   -19.66622   -5.65632   -1.39369
       H   -14.00703   -5.51784   -4.82375
       O   -13.53816   -4.80003   -4.34650
      H1   -12.74187   -4.65643   -4.85392
       H   -13.07366   -5.73445   -3.12116
       O   -13.00342   -5.97549   -2.14108
      H1   -12.87757   -5.03197   -1.87351
       H   -18.13381  -13.17443    3.38795
       O   -18.28326  -12.42857    3.96968
      H1   -19.24734  -12.45722    4.08420
       H   -13.20404   -8.31323    5.68055
       O   -12.65883   -8.18580    4.88336
      H1   -12.75922   -9.01201    4.36807
       H   -12.85376  -11.48113    3.63561
       O   -13.37560  -10.65893    3.62307
      H1   -13.76014  -10.79862    2.71331
       H   -14.52859   -2.91507    4.26989
       O   -14.59168   -3.00886    3.28588
      H1   -14.34162   -4.02316    3.22722
       H   -15.77695  -12.09226   -3.86028
       O   -15.24082  -11.29828   -3.73436
      H1   -14.92224  -11.37302   -2.83011
       H   -12.61539  -10.22932    8.07530
       O   -12.23240  -10.79922    7.48026
      H1   -11.89010  -11.55015    7.93770
       H    -9.95509   -5.22634    3.82251
       O    -9.06850   -5.20383    4.21949
      H1    -9.00860   -6.18960    4.45299
       H   -15.27972   -2.36296    6.32141
       O   -14.40423   -2.56535    5.95850
      H1   -14.04814   -1.61789    5.93611
       H   -16.79945   -5.36982   -3.70274
       O   -17.28766   -4.63431   -3.31790
      H1   -16.66790   -4.34140   -2.65379
       H   -13.64429  -13.65564    1.29260
       O   -14.54814  -13.94616    1.40680
      H1   -15.08833  -13.24165    1.83458
       H   -17.81136  -15.91970    3.37701
       O   -18.37964  -15.18194    3.21413
      H1   -19.22206  -15.50227    3.50088

