180
frame 2 | Written by MDAnalysis XYZWriter (release 2.4.3)
       H    11.48255  -12.31384   -3.82256
       O    10.67109  -12.72383   -4.14293
      H1    10.57442  -12.12647   -4.95272
       H     7.27617   -4.02998   -3.57050
       O     6.81604   -4.88606   -3.72238
      H1     6.03064   -4.60567   -4.23746
       H     7.13337   -8.24876   -1.82539
       O     7.80602   -8.69139   -1.21264
      H1     7.14747   -9.15559   -0.70587
       H     5.75037  -14.09187   -3.68605
       O     4.78836  -13.95436   -3.32411
      H1     4.48781  -13.37109   -4.05959
       H    13.20646   -8.38918   -7.54509
       O    13.90279   -8.41103   -8.24822
      H1    14.42733   -7.62470   -8.15771
       H    12.58085  -11.16817   -9.50811
       O    13.48122  -11.17525   -9.09686
      H1    13.54184  -10.33000   -8.62372
       H    14.20874   -4.40778   -4.39765
       O    14.03943   -4.81678   -5.24901
      H1    13.28256   -5.41547   -5.08125
       H     6.73186   -6.69186  -11.85588
       O     7.18754   -5.82476  -11.83938
      H1     7.03976   -5.61645  -12.79189
       H     9.61184   -4.28975   -5.25453
       O     9.51836   -5.02291   -4.58902
      H1     8.57030   -5.08943   -4.52831
       H    12.48377   -5.91104   -1.88551
       O    12.44454   -4.92017   -2.06713
      H1    13.37763   -4.71191   -2.24864
       H     8.87603   -2.62499  -11.59494
       O     9.04038   -2.61200  -10.60749
      H1     8.29492   -3.24331  -10.31237
       H    13.67578   -8.61447   -4.51623
       O    13.92242   -9.04935   -3.68619
      H1    13.29252   -9.76881   -3.51172
       H     4.62192   -2.70965   -9.25901
       O     3.86874   -3.12418   -8.80011
      H1     3.98605   -2.82519   -7.89953
       H    13.01211   -7.96851   -0.87296
       O    12.70033   -7.54771   -1.72005
      H1    13.23220   -8.00906   -2.43693
       H     8.97570  -14.71418   -4.86965
       O     9.70593  -14.90789   -5.49776
      H1    10.30383  -14.21376   -5.19989
       H     8.03551  -11.91856   -6.34661
       O     7.11514  -11.85861   -6.58079
      H1     7.10676  -11.37417   -7.41472
       H     1.81648   -4.61991   -3.70629
       O     2.74148   -4.24171   -3.69067
      H1     2.78138   -3.76430   -2.81340
       H    10.23144  -10.19670  -10.43773
       O    11.14028  -10.45659  -10.66596
      H1    11.00885  -11.34337  -11.07263
       H     3.98880  -13.55616   -9.04605
       O     3.53371  -12.78505   -8.66159
      H1     4.18029  -12.39510   -8.04939
       H     8.03930   -5.95427   -6.88601
       O     7.85631   -5.08304   -7.35558
      H1     8.59515   -4.51942   -7.01302
       H     7.59790   -2.15636   -5.47741
       O     7.48458   -2.02031   -6.47354
      H1     6.92555   -2.70887   -6.74558
       H     3.08590   -7.80672   -7.19194
       O     2.65684   -8.15766   -7.95890
      H1     3.25677   -8.81502   -8.37873
       H    10.50679   -6.91460   -1.23367
       O     9.60053   -6.65262   -1.03342
      H1     9.09663   -7.46898   -1.14341
       H     4.09815   -7.97185   -0.16167
       O     4.44767   -8.56060    0.52651
      H1     4.16710   -8.09530    1.29860
       H     3.93274   -4.83268   -4.83024
       O     4.61016   -4.64178   -5.47347
      H1     4.58744   -5.39202   -6.03565
       H     5.74948   -7.67869   -6.09946
       O     4.82391   -7.68382   -6.07010
      H1     4.49843   -8.03216   -5.24427
       H     2.45394   -2.81378   -6.52831
       O     3.25006   -2.37388   -6.17107
      H1     3.71125   -3.16756   -5.77663
       H     7.07549   -6.39414    0.13724
       O     6.54041   -5.84556   -0.45716
      H1     6.19311   -5.14660    0.14709
       H    10.55057  -11.59852   -7.11440
       O    10.01524  -11.25746   -6.42163
      H1    10.14920  -10.28510   -6.40728
       H     1.38817   -7.70280   -2.97975
       O     1.88065   -7.61787   -3.75945
      H1     2.61039   -8.16489   -3.48074
       H     5.92890   -6.60326   -3.49882
       O     5.57921   -7.09509   -2.72222
      H1     6.04590   -6.63853   -1.98553
       H     6.78508  -13.59946   -7.37474
       O     6.55746  -14.56962   -7.71743
      H1     6.37917  -14.98163   -6.83315
       H     9.37534   -4.93916   -1.48305
       O     9.65576   -4.00000   -1.60521
      H1    10.55211   -4.25793   -1.97426
       H    11.43999   -7.31920  -10.17027
       O    10.77604   -7.25847   -9.45554
      H1    10.69863   -6.27974   -9.46231
       H    10.40923   -3.75720   -9.21535
       O    10.96000   -4.35287   -9.74766
      H1    10.59587   -4.42083  -10.64878
       H    11.01176   -5.94816   -4.68747
       O    11.84414   -6.41642   -4.63635
      H1    12.22671   -6.09953   -3.83880
       H     9.36671   -8.39908  -10.08814
       O     8.83120   -9.00202  -10.58645
      H1     8.38326   -8.32573  -11.13416
       H     1.07129   -8.67601   -7.88671
       O     0.23271   -9.20962   -8.15915
      H1     0.49416   -9.30656   -9.08803
       H     3.48800  -11.29477   -5.14146
       O     3.50509  -12.25274   -5.14323
      H1     2.61676  -12.41100   -4.78388
       H     7.48575   -1.91752   -0.85311
       O     7.00645   -2.72377   -0.57411
      H1     7.50775   -3.37480   -1.11552
       H     8.22719   -1.38818   -3.55426
       O     8.19153   -2.38309   -3.61723
      H1     8.98809   -2.55265   -3.18121
       H     9.90684   -9.62843   -3.78324
       O     9.31103   -9.18118   -4.39344
      H1     8.56623   -9.68719   -4.02544
       H     9.42978   -5.66428  -11.84996
       O    10.27508   -5.62241  -12.26209
      H1    10.58439   -6.53197  -12.11258
       H    10.96686   -3.11799   -6.53317
       O    10.05180   -3.47342   -6.46525
      H1     9.56173   -2.60624   -6.56926
       H    11.10577   -7.77122   -7.26983
       O    11.46464   -8.44034   -6.68972
      H1    11.27771   -7.98545   -5.85128
       H     0.55054   -5.95332   -7.54661
       O     1.21962   -5.36018   -7.14087
      H1     1.02311   -5.49388   -6.21273
       H     6.82636   -4.71723  -10.54709
       O     6.81444   -4.07019   -9.79577
      H1     7.10702   -4.57139   -9.04405
       H    12.12858  -13.14669   -8.70787
       O    11.23772  -12.86177   -8.90979
      H1    10.63307  -13.54002   -8.57744
       H     2.53010   -6.19452   -1.51712
       O     3.44337   -6.25367   -1.16233
      H1     3.96917   -6.11767   -1.91922
       H     9.13017  -10.00340   -1.35818
       O     9.91707  -10.41055   -1.71191
      H1     9.71870  -11.33688   -1.60875
       H     3.59621   -6.26286   -8.21346
       O     4.35989   -5.74011   -8.47641
      H1     4.02942   -4.82842   -8.57051
       H     4.89560   -8.79529   -3.20299
       O     4.24948   -9.36410   -3.66121
      H1     3.98749   -9.91924   -2.91372
       H     5.21448   -7.09247   -9.80805
       O     5.46234   -7.67921  -10.46133
      H1     4.68651   -7.88115  -11.00125
       H     5.88153  -11.00882   -4.26331
       O     6.79088  -10.72802   -4.17972
      H1     7.12068  -11.08337   -5.02104
       H     4.72663  -10.24834  -10.03160
       O     4.41145  -10.17327   -9.06804
      H1     3.97277  -11.02898   -9.02608
       H     4.36657  -11.93009   -1.82144
       O     3.64740  -11.29347   -1.82565
      H1     2.92216  -11.81231   -2.17708
       H     7.00821   -8.85162   -9.19616
       O     7.00280   -9.48682   -8.46732
      H1     6.05295   -9.75858   -8.44114
       H    12.92855   -7.77910  -11.62959
       O    11.95225   -7.87876  -11.75144
      H1    11.73464   -8.79887  -11.68685
       H     7.58088   -8.63507   -6.80650
       O     7.58190   -7.90256   -6.18094
      H1     8.24196   -8.21237   -5.55538
       H     8.45059  -12.40197  -10.94623
       O     7.61064  -11.88356  -11.10058
      H1     8.05392  -11.02404  -11.28162

