180
frame 1 | Written by MDAnalysis XYZWriter (release 2.4.3)
       H     4.54966   -1.07027    6.85325
       O     4.54157   -1.72889    6.09707
      H1     4.44150   -2.57723    6.61440
       H    -0.75759    2.23725   12.28588
       O    -1.25014    2.96042   12.72371
      H1    -1.02592    3.78933   12.32566
       H     6.09292    3.28297   17.25602
       O     5.91055    4.25395   17.31433
      H1     5.51577    4.34803   18.22696
       H     0.34395    5.50941    5.92371
       O     0.79122    4.64263    5.99891
      H1     1.27173    4.60096    5.17954
       H     4.68003    4.11798   12.78900
       O     4.75749    3.54766   12.00127
      H1     4.21283    2.77941   12.33875
       H     4.92069    8.64336   14.33197
       O     4.55671    8.06049   15.02548
      H1     4.59000    7.24611   14.47683
       H     7.45598    2.32309   14.57276
       O     8.15404    2.70945   14.02030
      H1     7.76272    2.70645   13.13801
       H    -0.08085    1.44067    6.59867
       O     0.15263    0.83142    7.31502
      H1     0.49075    1.52428    7.97072
       H    12.00248    1.78558   11.53895
       O    11.26471    1.66745   10.89930
      H1    11.54279    0.75679   10.55020
       H     6.76502    4.01478   11.10166
       O     7.55979    3.74511   11.52735
      H1     7.70907    2.86398   11.15439
       H     2.37241    9.50656   13.10148
       O     3.14245   10.08061   12.94236
      H1     3.12897   10.67181   13.67134
       H     4.69435    4.33958   10.39335
       O     4.78112    4.65288    9.47378
      H1     4.17397    4.09937    8.90742
       H     3.89828    8.18689    9.88174
       O     3.96647    9.05224   10.34093
      H1     3.87485    8.72814   11.25115
       H    -1.46310    4.70579    9.08300
       O    -1.49267    4.29998    8.19575
      H1    -2.37243    4.59187    7.93846
       H    -0.03724    3.41440    8.52855
       O     0.63204    2.87826    9.03970
      H1     1.16874    3.58302    9.44607
       H     4.40029   -0.40532    9.45750
       O     4.87909   -0.49216    8.62558
      H1     5.02486    0.36960    8.26413
       H    10.58730    7.50403   14.49755
       O    10.04998    7.81429   13.69526
      H1    10.70119    7.55645   13.02475
       H     3.71427    2.54284    6.97678
       O     3.36791    3.37919    7.28018
      H1     2.49652    3.35132    6.85725
       H     3.23375    6.22030   11.69491
       O     3.48222    6.82025   12.37330
      H1     2.69336    7.23144   12.70625
       H     1.95600    0.11228   10.54999
       O     2.45528   -0.68488   10.48627
      H1     1.97130   -1.10508    9.76577
       H     5.71575   -1.71703   12.49613
       O     6.08351   -1.67249   11.59822
      H1     5.68965   -2.46647   11.17461
       H     0.91945    5.49039   10.93086
       O     1.75219    4.98577   10.70418
      H1     2.00730    4.57564   11.51218
       H     4.36157    5.15634   15.75006
       O     3.47612    5.04762   16.14221
      H1     3.61892    4.81655   17.09484
       H     7.33498    8.34832   12.65539
       O     7.40829    7.39767   12.57063
      H1     8.35092    7.35805   12.85382
       H     9.52259    4.75753   11.44701
       O    10.49821    4.59147   11.48131
      H1    10.55575    3.63426   11.29591
       H     0.55498    5.67492   15.08855
       O     0.94140    4.81353   15.36241
      H1     1.79009    5.09952   15.74462
       H    -1.55782    7.60683   10.29313
       O    -0.65404    7.36657   10.65418
      H1    -0.02808    7.46665    9.92066
       H     7.18282    9.03409    9.40888
       O     6.30429    9.26253    9.16029
      H1     5.73282    9.01715    9.99124
       H     9.40458    5.38114    8.59029
       O    10.16052    5.69558    8.08002
      H1    10.73779    6.03972    8.76344
       H     5.82961    0.76066   16.52340
       O     6.49284    1.45575   16.51636
      H1     7.30403    0.90324   16.45971
       H     4.79260    1.03680    5.24052
       O     5.17391    1.21918    6.07642
      H1     6.10820    0.94912    5.93273
       H     4.51535    5.69489    5.10674
       O     3.88629    6.31566    4.64252
      H1     3.54395    6.88224    5.34764
       H     2.67659    2.00144   16.63130
       O     3.47679    2.44053   16.85550
      H1     3.62560    3.12093   16.17979
       H     9.31006    0.80322   11.48365
       O     8.42933    1.06242   11.16549
      H1     7.98012    0.23639   11.37148
       H     8.59941    8.35055   14.60002
       O     7.99448    8.72307   15.29913
      H1     7.15605    8.47620   14.94781
       H     4.59473    9.69403    6.56157
       O     5.39458    9.97661    6.14329
      H1     5.99096    9.62377    6.81359
       H     4.53635    0.95062   13.01244
       O     3.68251    1.13188   12.61494
      H1     3.56555    0.29119   12.11842
       H    10.05019    4.14755   15.15355
       O    10.38911    4.98791   15.44119
      H1     9.54848    5.41735   15.57061
       H     1.10123    1.77853   11.97164
       O     0.56295    1.37179   11.32012
      H1     0.72628    1.96688   10.53008
       H    -0.12924    7.43371    6.46797
       O    -0.90930    7.32242    7.04398
      H1    -1.53690    7.86718    6.58764
       H     1.29588   -0.45613    6.65452
       O     1.63006   -1.34414    6.40022
      H1     2.50520   -1.11512    6.12822
       H     5.37237    7.85140    8.32511
       O     4.50094    7.46557    8.10488
      H1     4.56755    6.45012    8.05319
       H     7.66622   11.26584   11.17763
       O     6.85509   11.73310   10.98363
      H1     6.39346   11.11785   10.44671
       H     4.93929   -0.71665   14.59852
       O     5.71445   -0.34580   14.16486
      H1     6.34382   -1.09052   14.37090
       H    -2.41893    4.95284   11.30733
       O    -1.64949    4.94774   10.75665
      H1    -1.39749    5.93179   10.82363
       H     9.40898    3.48619    5.65838
       O    10.09759    2.76480    5.55277
      H1    10.48858    2.70826    6.45361
       H    10.77394    6.22772   11.06126
       O    11.13889    7.14298   10.94373
      H1    10.36758    7.54255   10.48555
       H     0.35204    8.48517   12.11992
       O     0.98876    8.32216   12.79068
      H1     0.42774    8.00739   13.51194
       H     8.38082    7.55128    9.30986
       O     8.57933    8.02967   10.13417
      H1     8.05435    7.55920   10.84506
       H     6.51614    4.75856   14.35518
       O     5.87072    5.44362   14.20834
      H1     6.29590    6.00882   13.51435
       H     2.71051    7.63602    6.95011
       O     2.15902    7.57057    6.12414
      H1     2.22758    8.44438    5.78426
       H     7.87773    7.98240    6.05057
       O     7.07006    7.77636    6.52009
      H1     6.72221    7.26637    5.78182
       H     5.26517    9.60462   12.89317
       O     6.01935    9.75393   13.42350
      H1     5.94055   10.74494   13.59820
       H     4.82798    4.41319    7.03211
       O     5.30592    5.10360    6.58212
      H1     6.22155    4.75814    6.65829
       H     7.06698    6.64471    7.82276
       O     7.26199    6.06083    8.58905
      H1     6.37194    5.70033    8.81834
       H     2.30979    2.48923   13.33215
       O     1.95533    3.30897   13.07919
      H1     1.29634    3.51737   13.73643
       H     8.66715    5.55586    6.08444
       O     8.32395    4.82671    5.65594
      H1     8.16390    5.00163    4.71141
       H     9.29448    0.50970   15.94624
       O     9.16700    0.19930   15.02411
      H1     8.93976    0.91116   14.43164
       H     2.55799   10.21186   10.21849
       O     1.71152   10.71125   10.13269
      H1     1.89017   11.03158    9.24449
       H     8.25889    0.87757    5.59609
       O     7.63542    0.23463    6.02974
      H1     7.69298   -0.57469    5.55877

