180
frame 0 | Written by MDAnalysis XYZWriter (release 2.4.3)
       H   -14.96674   14.72064    4.70422
       O   -14.19833   15.09385    5.18236
      H1   -13.61365   15.04607    4.43560
       H   -17.62354   15.59942    3.72825
       O   -17.53702   15.32737    2.78191
      H1   -18.44940   15.38987    2.53035
       H   -14.42263   17.49479    9.02580
       O   -15.30593   17.82495    9.40377
      H1   -15.84642   17.82899    8.60896
       H   -13.38093    9.00154   12.63864
       O   -13.48951    9.96892   12.64331
      H1   -12.59424   10.16909   12.96753
       H   -11.56473   10.10209    0.52765
       O   -11.98388   10.75312    1.10192
      H1   -12.55527   11.27967    0.49550
       H   -14.32874   10.53105    6.78345
       O   -15.10834   10.42896    7.32771
      H1   -14.73053    9.72005    7.86331
       H    -9.55972   12.37988    9.16662
       O    -9.13968   11.55244    8.87861
      H1    -9.88151   10.98553    8.93497
       H    -7.36875   16.21716    2.24540
       O    -6.46966   16.22779    2.59761
      H1    -6.26416   17.15854    2.62008
       H   -18.35584    9.97506    6.95293
       O   -17.82729   10.76424    7.14318
      H1   -16.98132   10.44573    7.36491
       H    -9.80555   17.59488    8.35266
       O    -9.53437   16.69744    8.64629
      H1   -10.30979   16.32332    9.09202
       H   -14.96307   13.10352    2.99257
       O   -15.72201   13.43214    3.52762
      H1   -16.15552   13.84888    2.73624
       H   -11.06854   13.77131   10.13608
       O   -10.73635   13.67589    9.26136
      H1   -11.48688   13.54151    8.70499
       H    -8.37387   12.14252   12.26978
       O    -9.01930   12.35682   12.95511
      H1    -9.57742   11.48803   12.86640
       H   -13.80857   18.69951    2.99056
       O   -13.27846   18.09978    2.50632
      H1   -12.36396   18.51393    2.43916
       H   -12.25719   11.10556    9.30990
       O   -11.72087   10.39764    8.89068
      H1   -12.03871   10.21324    8.00195
       H   -10.51422   10.03161   14.01092
       O   -10.82057   10.49699   13.23187
      H1   -10.70458    9.82006   12.56176
       H    -9.05718   14.97139    3.49340
       O    -9.12573   14.09243    3.12534
      H1    -8.39999   13.63331    3.53167
       H   -17.09529   17.28411   12.00076
       O   -16.99012   16.59500   11.35320
      H1   -16.47013   17.11574   10.66365
       H   -15.20633    7.73155    4.59965
       O   -15.36365    7.30440    5.44956
      H1   -14.81173    7.86836    5.98774
       H    -6.75362   14.77938    9.08745
       O    -6.60683   14.24358    8.29012
      H1    -6.01849   14.81550    7.81801
       H   -11.55131    7.63707   10.75723
       O   -11.44669    8.49601   11.26198
      H1   -11.31427    9.13799   10.52940
       H   -17.48950    9.99881    3.57693
       O   -18.27763    9.77620    3.04949
      H1   -17.89620    9.34425    2.28587
       H    -7.88028    9.92678    0.32760
       O    -8.16193   10.89643    0.22047
      H1    -8.60133   11.05264    1.04697
       H   -10.64658   16.64730   12.50976
       O    -9.97577   16.42341   11.81709
      H1   -10.43801   15.71491   11.45121
       H    -8.93087   15.51335    7.18916
       O    -8.33709   15.24243    6.43977
      H1    -7.61598   14.71018    6.87199
       H    -8.19338    8.40150    3.87376
       O    -9.12946    8.56468    3.81914
      H1    -9.18558    9.34774    3.23271
       H    -7.99135   11.34181   10.17258
       O    -7.42065   11.38574   10.97395
      H1    -6.59982   11.88223   10.68639
       H   -16.43066   18.27099    5.89287
       O   -16.45154   18.34432    6.91612
      H1   -17.43018   18.45578    7.12930
       H   -10.82701   12.96505   12.25156
       O   -11.64038   13.40411   11.95688
      H1   -12.20779   12.60118   11.82482
       H    -5.42827   11.11336    7.70186
       O    -5.01710   11.98349    7.71352
      H1    -5.69326   12.60968    7.88926
       H    -7.32938   16.70231   11.29959
       O    -7.20412   16.51929   10.33586
      H1    -8.08191   16.69816    9.93023
       H    -9.47634   11.91526    2.79809
       O    -9.58741   11.01771    2.40167
      H1   -10.43559   11.09340    1.84737
       H    -7.30117   16.53188    5.95605
       O    -6.79984   17.31835    5.77801
      H1    -7.19502   17.91384    6.48847
       H   -12.32377   15.36874    2.40953
       O   -12.14359   15.70640    3.29110
      H1   -12.80846   16.48438    3.22638
       H    -8.60818   19.89466    7.38200
       O    -8.06773   19.13908    7.66212
      H1    -7.68808   19.55962    8.48637
       H    -6.90082   12.92281    4.85209
       O    -6.96720   11.99864    4.52540
      H1    -7.76218   11.56204    5.06936
       H   -13.34054   16.43582   10.80345
       O   -12.77883   16.92626   10.23414
      H1   -12.69510   17.76145   10.70448
       H   -12.37600   11.78711    6.11440
       O   -12.66625   10.84896    6.25821
      H1   -12.57792   10.44164    5.35698
       H    -5.15028   14.03749    4.47447
       O    -5.98716   14.49615    4.53440
      H1    -5.98077   15.04020    3.73276
       H   -14.34802   17.72770    6.91558
       O   -13.63628   17.14169    7.22094
      H1   -13.94549   16.27836    6.90572
       H   -15.42413   12.10919   12.71260
       O   -15.08470   12.33842   13.58449
      H1   -15.90981   12.22941   14.06668
       H   -13.00636   10.00434    2.93468
       O   -12.98313    9.41440    3.68648
      H1   -12.54616    8.64223    3.24295
       H   -15.43777   11.18873    1.42301
       O   -15.51176   10.25242    1.63068
      H1   -15.77246   10.30628    2.57613
       H    -9.00547   12.02308    7.04195
       O    -9.27453   12.17592    6.12831
      H1    -9.76498   11.37299    6.02545
       H    -9.55877   15.84186    4.89635
       O    -9.55529   16.44525    4.13880
      H1   -10.43360   16.23977    3.74633
       H    -9.79920    7.01873    5.00755
       O   -10.57370    6.45706    4.85330
      H1   -11.17748    6.58977    5.59162
       H   -16.86562   12.71282   11.18172
       O   -15.98111   12.43013   10.94546
      H1   -15.69746   13.32840   10.63325
       H   -13.88492   13.22690    1.40166
       O   -13.72615   12.75068    2.18849
      H1   -12.76411   12.57467    2.16235
       H    -9.55664    9.22460    5.25795
       O    -9.85717    9.50921    6.14362
      H1    -9.43956    8.87924    6.76443
       H    -7.89351   18.55388    4.91885
       O    -8.39366   19.02707    4.19732
      H1    -8.86815   18.17268    4.01911
       H   -10.30690   18.70483    5.18607
       O   -11.21420   18.88321    5.40463
      H1   -11.68910   18.02969    5.39970
       H    -9.59967   15.70642    0.67860
       O    -8.64531   15.53258    0.90549
      H1    -8.77415   14.86252    1.63888
       H   -14.48634   15.22178   -0.29677
       O   -13.85818   14.98951    0.37605
      H1   -12.99713   15.12422   -0.04865
       H   -13.55491   11.08406   11.50595
       O   -13.43679   11.64043   10.68109
      H1   -14.28315   12.02618   10.57823
       H   -18.63319   12.86405    9.46615
       O   -19.09526   12.07972    9.09487
      H1   -18.52734   11.74406    8.39069
       H   -12.03831   18.51228    7.90971
       O   -11.47087   19.15580    8.34341
      H1   -11.33905   19.66545    7.50558
       H   -12.74995   13.67593    5.87761
       O   -12.09796   13.39504    6.55377
      H1   -11.28115   13.30720    6.08999
       H   -13.52314    9.79353    9.71061
       O   -14.07653    9.02221    9.42107
      H1   -13.30244    8.37764    9.19675
       H   -14.06520   14.45230   11.48253
       O   -14.56074   14.49601   10.70245
      H1   -15.24328   15.07950   10.95822
       H   -16.12553   11.83356    4.42697
       O   -16.06780   10.88150    4.39896
      H1   -15.69639   10.72877    5.27367

