180
frame 4 | Written by MDAnalysis XYZWriter (release 2.4.3)
       H    16.05469   10.07539   -6.14602
       O    16.27826   10.59139   -6.98994
      H1    15.38790   11.03367   -7.09117
       H    12.09758    4.66069  -17.57617
       O    11.36364    5.25932  -17.39714
      H1    10.75465    4.70104  -16.87977
       H    16.54610   11.11736  -15.16672
       O    17.33872   11.53125  -14.70518
      H1    17.63309   12.19340  -15.35072
       H    16.19541    7.64999   -9.33831
       O    17.06890    7.28960   -9.17652
      H1    17.16467    6.42467   -9.67866
       H    13.44244    2.05029   -7.08505
       O    12.98025    1.20975   -6.99660
      H1    13.11180    0.80174   -7.85291
       H    12.19544    8.96037  -13.22624
       O    11.70292    8.56161  -13.96289
      H1    12.26388    7.89756  -14.26140
       H    18.18179    0.16604  -11.59744
       O    18.13801    1.08890  -11.80941
      H1    18.98800    1.39775  -11.43928
       H    13.15353   -1.60079  -11.12802
       O    13.72584   -0.90741  -11.42684
      H1    14.38757   -0.89481  -10.68873
       H    19.10382    9.26676   -8.04721
       O    19.27476    9.63204   -8.92826
      H1    18.40011    9.88654   -9.19678
       H    17.32739   -1.17692  -10.15492
       O    18.15157   -1.46860  -10.49969
      H1    18.15331   -2.48276  -10.37719
       H    11.43063    5.75114   -7.08261
       O    12.07269    5.89370   -7.76925
      H1    12.77099    5.31218   -7.43726
       H    16.26289    6.25347  -14.96096
       O    17.24393    6.49162  -15.04332
      H1    17.26619    7.11552  -15.80453
       H    14.81184    4.62070   -4.94406
       O    14.75136    3.83446   -4.40696
      H1    14.42307    4.16571   -3.54510
       H    14.04221    4.12926  -18.50542
       O    13.52426    3.62623  -17.84224
      H1    13.01766    2.96518  -18.37988
       H    16.94451    2.09265  -10.13732
       O    16.46305    2.06776   -9.26128
      H1    17.12642    2.50425   -8.63635
       H    16.00645    8.80003  -14.67459
       O    15.20363    8.84757  -15.24399
      H1    15.53765    9.60454  -15.85336
       H    18.64521    7.16690  -19.57197
       O    18.58414    7.25001  -18.57914
      H1    18.09818    6.38844  -18.42731
       H    11.53246    2.09533  -10.33642
       O    11.73034    2.77593  -10.98164
      H1    12.36961    3.37257  -10.57103
       H    17.44841   -0.12215   -6.56270
       O    17.42786   -1.04557   -6.30146
      H1    16.77272   -1.50069   -6.81875
       H    15.21751    5.34130  -12.93879
       O    14.90261    6.22163  -13.13383
      H1    14.39677    6.07602  -13.94226
       H    16.78382    3.82443  -12.09022
       O    17.22018    4.57041  -11.69786
      H1    17.96607    4.51315  -12.31615
       H    16.16153    0.20083   -9.19654
       O    15.82048   -0.61594   -9.55998
      H1    15.74297   -1.18393   -8.76175
       H    11.96919    6.11811  -15.81829
       O    12.40279    6.16585  -14.94908
      H1    11.88785    5.48433  -14.42042
       H    15.26147    5.19997   -6.72048
       O    14.81240    6.02958   -6.59302
      H1    15.48831    6.63384   -6.88513
       H    12.26598    8.37957   -6.30558
       O    12.28822    8.54824   -7.26066
      H1    12.13379    7.62301   -7.60195
       H    15.78329    8.71864  -19.50657
       O    16.10491    8.62287  -18.63891
      H1    16.99029    8.18468  -18.73763
       H    17.37539   -1.42200  -14.73221
       O    17.78724   -2.29634  -15.02611
      H1    17.37992   -2.86101  -14.35955
       H     9.12940    7.16547  -12.95842
       O    10.05733    6.83184  -12.68279
      H1    10.77805    7.39191  -13.06366
       H    16.26119   -2.29136  -12.90573
       O    16.26523   -3.26889  -13.10516
      H1    15.35107   -3.35184  -13.46854
       H    12.96310    1.88098  -11.94695
       O    13.72296    1.59435  -12.47722
      H1    13.79165    0.60391  -12.30577
       H    14.79767    3.06029  -16.70652
       O    15.58976    2.85166  -16.12908
      H1    15.36926    1.87445  -15.99383
       H    14.96496    7.53594  -11.45778
       O    14.90898    8.19654  -10.72928
      H1    14.20495    8.72499  -11.23478
       H    18.10595    4.94930  -17.79516
       O    17.17858    5.15749  -17.76173
      H1    16.98222    5.44822  -16.84930
       H     9.72713    7.77338   -9.67900
       O    10.15580    6.93201   -9.97617
      H1    10.06791    7.00571  -10.95278
       H    17.80911    0.67168  -19.25371
       O    16.90969    1.02558  -19.08135
      H1    16.93915    1.25636  -18.12549
       H    14.78401    7.31105  -15.96068
       O    14.73788    6.47315  -16.38902
      H1    13.91659    6.06258  -16.12818
       H    18.40285    4.76360  -10.21370
       O    19.20975    5.10923   -9.82217
      H1    19.11804    4.80874   -8.88501
       H    12.43638    8.22278  -18.17797
       O    12.86739    7.61945  -18.75779
      H1    13.62973    7.38615  -18.23870
       H    18.62750   11.14252  -13.72373
       O    19.40796   11.27789  -13.14875
      H1    19.79264   10.43183  -12.94437
       H    19.73774    8.25249  -12.09846
       O    19.73307    8.59493  -13.03376
      H1    18.76640    8.50554  -13.21895
       H    10.57326    5.02331  -13.15357
       O    11.05881    4.19161  -13.38918
      H1    11.31881    3.86985  -12.47989
       H    11.64150    1.23090  -14.22039
       O    10.82938    1.36793  -14.68075
      H1    10.66460    2.31089  -14.61312
       H    13.41400   -1.47356  -14.52630
       O    12.85617   -0.81892  -15.07542
      H1    13.60049   -0.32859  -15.44751
       H    15.55500   -0.55394  -16.61833
       O    14.86009    0.09288  -16.71552
      H1    14.62524    0.21523  -17.61047
       H    16.89254    9.31459  -12.23921
       O    17.05115    8.64857  -12.93308
      H1    16.88432    7.82899  -12.44736
       H    19.38435    1.59181   -7.19898
       O    18.57020    1.45331   -6.67902
      H1    18.94748    1.67714   -5.76093
       H    19.32469    2.94886   -4.23784
       O    19.09621    2.03508   -4.06770
      H1    19.83586    1.52120   -4.35438
       H    18.35855    2.23673  -15.42872
       O    18.16736    3.20508  -15.50369
      H1    17.21581    3.15957  -15.86212
       H    12.72357    5.48059   -9.76463
       O    13.19275    5.01737  -10.46542
      H1    13.14908    5.57086  -11.25815
       H    13.11337   10.55615  -12.61979
       O    13.17371    9.76051  -12.03564
      H1    12.67160   10.15988  -11.28976
       H    18.80706    4.12212  -14.04968
       O    19.18936    4.94080  -13.58810
      H1    18.70744    5.66168  -14.14134
       H    18.01759    7.78275   -7.58026
       O    18.48915    8.14282   -6.80278
      H1    19.06686    7.45818   -6.45473
       H    13.96049    4.14625   -9.03425
       O    14.34845    3.69684   -8.25178
      H1    15.19444    3.35770   -8.62963
       H    19.27916   -1.29014   -8.97626
       O    19.61570   -1.14877   -8.13631
      H1    18.89578   -1.13542   -7.46353
       H    16.00043   10.09197  -10.52523
       O    16.95724   10.22580  -10.43862
      H1    17.01850   11.17750  -10.60900
       H    18.68864   12.18197  -11.76237
       O    18.25174   12.64259  -11.01626
      H1    18.87404   12.71907  -10.30091
       H    18.15835    4.79762   -7.20755
       O    18.00365    3.96101   -7.70286
      H1    18.41592    3.25590   -7.08332
       H    16.60474    0.63932  -13.53429
       O    16.63825    0.06576  -14.32195
      H1    17.20901    0.53628  -14.96822
       H    15.69998    3.01807  -14.35897
       O    15.71009    2.99576  -13.38987
      H1    14.92351    2.35788  -13.31007
       H    19.22264    0.06874  -16.86370
       O    18.84208    0.67856  -16.19006
      H1    19.59401    0.87869  -15.65001

