180
frame 0 | Written by MDAnalysis XYZWriter (release 2.4.3)
       H   -12.80534  -12.62668  -17.59042
       O   -12.20955  -12.43963  -16.83394
      H1   -11.66190  -13.21151  -16.78660
       H   -17.78012  -14.87810   -9.72648
       O   -18.44531  -15.09949  -10.35276
      H1   -18.17179  -14.80809  -11.26440
       H   -17.04082   -2.16456  -11.01205
       O   -16.30113   -1.67590  -11.46378
      H1   -15.58068   -2.24331  -11.72559
       H   -18.55189  -11.85651  -10.67881
       O   -17.60416  -11.67769  -10.87829
      H1   -17.39639  -11.28168  -10.01199
       H   -17.39836   -0.21628  -12.29210
       O   -17.71636    0.69004  -12.25034
      H1   -18.38318    0.73958  -12.89507
       H   -18.31243   -4.90855   -6.54089
       O   -18.97043   -5.32564   -5.98640
      H1   -19.09928   -4.84876   -5.13723
       H   -14.81701   -0.64983  -13.95566
       O   -14.57357    0.19152  -13.49340
      H1   -13.87630    0.64351  -14.04892
       H   -17.57379   -5.37469  -15.47937
       O   -18.50908   -5.25642  -15.33270
      H1   -18.71736   -5.94351  -14.65103
       H   -12.70572  -11.35351  -13.17200
       O   -11.75836  -11.33279  -12.94533
      H1   -11.27648  -11.76631  -13.62665
       H   -14.68351  -14.71921  -17.50512
       O   -14.88897  -15.36227  -18.20644
      H1   -13.96624  -15.51250  -18.58490
       H   -12.60179   -5.56523  -10.72816
       O   -13.07536   -4.83854  -10.30646
      H1   -12.40491   -4.39330   -9.67491
       H   -14.09466   -9.35246  -10.74833
       O   -14.82940   -9.98949  -10.63524
      H1   -15.62674   -9.42365  -10.77848
       H   -14.99600   -4.87220  -10.10746
       O   -15.91248   -5.08052  -10.07671
      H1   -16.19310   -4.64046   -9.25064
       H   -11.09754   -5.47867  -18.24813
       O   -11.04102   -6.43415  -18.00453
      H1   -11.06439   -6.95522  -18.87354
       H   -16.53992  -11.97378  -16.54299
       O   -16.67010  -12.95616  -16.36861
      H1   -16.91560  -12.88021  -15.42328
       H   -13.88102   -8.32380  -15.59420
       O   -14.43979   -8.58008  -14.83865
      H1   -15.39275   -8.58165  -15.10214
       H   -15.73432   -6.62969  -17.51190
       O   -16.74803   -6.62208  -17.45800
      H1   -17.01367   -7.15797  -18.21334
       H   -15.69090   -3.86716   -7.12827
       O   -16.52029   -4.19100   -7.52051
      H1   -17.13832   -3.43848   -7.46286
       H   -12.64960  -10.43489  -16.89672
       O   -12.42372   -9.49220  -16.89258
      H1   -11.52197   -9.38879  -16.52810
       H   -16.68443   -8.18729  -11.99654
       O   -17.10445   -8.96083  -11.57036
      H1   -17.54511   -8.71060  -10.74512
       H   -14.57345  -10.24522  -13.87781
       O   -14.51235  -11.00493  -13.36812
      H1   -14.84235  -10.70501  -12.52801
       H   -12.53787   -9.44564   -9.20777
       O   -12.51630   -8.54244   -9.51482
      H1   -13.02108   -8.07734   -8.88639
       H   -12.25954   -6.10441  -13.77433
       O   -11.92679   -5.26005  -14.11870
      H1   -11.18589   -5.51863  -14.68227
       H   -19.24071   -7.58145   -9.56021
       O   -18.60364   -8.24372   -9.19133
      H1   -18.30514   -7.95493   -8.31824
       H   -18.21880   -9.03170  -18.77412
       O   -18.85473   -8.85964  -18.04655
      H1   -19.06303   -9.71944  -17.71067
       H   -17.21015  -14.66004  -13.21183
       O   -18.17751  -14.74838  -13.04961
      H1   -18.37374  -15.58806  -13.47784
       H   -11.55335   -7.40333  -10.38683
       O   -10.90489   -6.93453  -10.93831
      H1   -11.43087   -6.91588  -11.79564
       H   -19.21138   -1.22114  -10.44881
       O   -18.61112   -2.00109  -10.21016
      H1   -18.27034   -1.93764   -9.33033
       H   -16.24392  -10.58661  -18.35773
       O   -15.70800  -10.50398  -17.55612
      H1   -16.15941   -9.89480  -16.94382
       H   -14.96111   -5.59032  -15.75040
       O   -15.52802   -5.28641  -15.06091
      H1   -15.71564   -6.10241  -14.53796
       H   -16.42083   -7.34768   -6.09618
       O   -15.56875   -7.03425   -5.70385
      H1   -15.22932   -6.54847   -6.47268
       H   -19.55713   -9.67328  -13.94724
       O   -19.40528   -9.55623  -14.89483
      H1   -19.63289   -8.60749  -15.06548
       H   -13.84562   -3.49723  -17.31915
       O   -14.35039   -3.76355  -18.09472
      H1   -15.18273   -3.31185  -18.13991
       H   -13.49931   -5.73436   -8.56561
       O   -13.53589   -6.52051   -7.95618
      H1   -12.71216   -6.36303   -7.41940
       H   -13.58254  -13.51466  -16.07343
       O   -14.36314  -14.03441  -15.77087
      H1   -15.13981  -13.48846  -15.98728
       H   -19.36692   -3.66389  -16.53964
       O   -19.62495   -2.91203  -17.09376
      H1   -19.64619   -2.10552  -16.57951
       H   -16.67804    0.97277  -17.88435
       O   -16.85130   -0.00671  -17.64369
      H1   -16.85870   -0.44555  -18.49551
       H   -14.07814   -5.31646  -17.52894
       O   -13.94830   -6.20682  -17.03247
      H1   -13.02499   -6.48979  -17.14710
       H   -17.13703  -16.82301  -16.16698
       O   -16.51088  -17.35295  -16.70859
      H1   -15.67641  -16.85879  -16.82311
       H   -18.82491   -0.06249  -16.73833
       O   -19.65700   -0.00579  -16.28318
      H1   -20.16270    0.64973  -16.77043
       H   -11.74080  -11.88384  -11.29198
       O   -11.58319  -12.04929  -10.32017
      H1   -11.40373  -12.99179  -10.17499
       H   -13.48430   -7.89990  -13.46687
       O   -12.68594   -7.63919  -12.97296
      H1   -12.01231   -8.31927  -13.24322
       H   -14.85681   -1.49573  -15.93472
       O   -15.05548   -2.13288  -15.19493
      H1   -15.35669   -2.97877  -15.52944
       H   -15.01225  -12.73579  -13.25090
       O   -15.39180  -13.61549  -13.37361
      H1   -15.02891  -13.94436  -14.24585
       H   -17.88849   -3.37897  -18.21699
       O   -16.96724   -3.74714  -18.14035
      H1   -16.99579   -4.69568  -18.18781
       H   -17.72018   -6.58382  -12.59719
       O   -16.75529   -6.48259  -12.44710
      H1   -16.57402   -5.68082  -11.90890
       H   -17.37699  -10.80817  -14.30575
       O   -17.71014  -11.72947  -14.07901
      H1   -17.43304  -11.92009  -13.15127
       H   -13.55267   -2.82781  -15.56260
       O   -12.82306   -3.33942  -15.84866
      H1   -12.72641   -4.11126  -15.24546
       H   -14.58098   -9.68464  -18.54590
       O   -14.07397   -9.13497  -19.13266
      H1   -13.24528   -9.05261  -18.71684
       H   -18.00026   -9.13913  -15.50643
       O   -17.08306   -8.77425  -15.67920
      H1   -17.27596   -7.95385  -16.22365
       H   -18.40544   -8.99292   -6.18430
       O   -18.10585   -8.09127   -6.29927
      H1   -18.69151   -7.50622   -5.84561
       H   -12.71280  -11.69788   -8.85054
       O   -13.22835  -11.09167   -8.34161
      H1   -14.14856  -11.29090   -8.53597
       H   -18.25481   -3.80984  -14.36351
       O   -18.42914   -3.05302  -13.75082
      H1   -17.55332   -2.87837  -13.39160
       H   -15.56738  -12.60132   -8.96928
       O   -15.80412  -11.85297   -8.37388
      H1   -16.00642  -12.29818   -7.53234
       H   -18.81814  -17.50217  -14.99901
       O   -18.63728  -16.62121  -15.21024
      H1   -19.39150  -16.34485  -15.73193
       H   -14.20809  -16.56028  -13.10928
       O   -13.41519  -16.07616  -12.92164
      H1   -13.77325  -15.22497  -12.85217
       H   -14.17079  -14.36955   -9.47023
       O   -14.95958  -13.95125   -9.84562
      H1   -14.66193  -13.50767  -10.62841
       H   -18.25669  -11.58937   -5.51724
       O   -18.85281  -10.88556   -5.75189
      H1   -19.45550  -11.38062   -6.33533
       H   -10.88548   -9.92870  -13.46711
       O   -10.40507   -9.19082  -13.88144
      H1    -9.61824   -9.06891  -13.26755
       H   -14.23998   -3.78331  -12.93459
       O   -14.13760   -3.18893  -12.18027
      H1   -13.54462   -3.68951  -11.59789

