180
frame 0 | Written by MDAnalysis XYZWriter (release 2.4.3)
       H     7.95161  -15.91013    6.07932
       O     8.35913  -15.55775    6.88953
      H1     9.04955  -14.98078    6.49648
       H    11.40568  -16.39648   16.24897
       O    11.24730  -16.09314   17.18443
      H1    10.45605  -15.48388   17.13976
       H     9.64424  -14.10609   15.94964
       O     9.00916  -14.53432   16.50428
      H1     8.50462  -13.78131   16.75084
       H     6.95201  -18.80849    7.14602
       O     6.02020  -18.58339    6.76919
      H1     6.27044  -17.92760    6.09961
       H     3.29184  -17.11654   15.54106
       O     2.64325  -17.79899   15.78399
      H1     2.35126  -18.15188   14.90567
       H    10.61731  -17.36111    7.38088
       O     9.99462  -17.27960    8.08505
      H1     9.34736  -16.71223    7.62746
       H     8.91598  -18.65549   13.66975
       O     9.12536  -18.19930   14.51890
      H1     8.31772  -18.41236   14.99414
       H    10.90269  -12.56734   18.73356
       O    10.12410  -12.08865   19.01472
      H1    10.19329  -12.24364   19.98971
       H    15.56831  -18.21075   14.16369
       O    14.72514  -18.70142   13.94536
      H1    14.05644  -18.05337   14.31793
       H     2.01787  -17.48885   12.57851
       O     1.61997  -18.27036   13.06771
      H1     0.69073  -18.20880   12.71398
       H    14.30025  -13.62163   12.17549
       O    14.01327  -14.47067   11.75939
      H1    13.63563  -14.13888   10.94019
       H    12.89465  -10.83061   10.82658
       O    12.26272  -11.53168   10.91588
      H1    11.46912  -11.12430   10.47486
       H    13.71599  -12.01125   13.44281
       O    14.60044  -12.26877   13.16933
      H1    14.92462  -12.73835   13.89623
       H     5.44608  -12.05498   11.69546
       O     5.78084  -12.00343   10.84042
      H1     5.93213  -12.91254   10.61868
       H    15.35793  -15.47202   18.03344
       O    15.50113  -15.70861   17.12711
      H1    16.04598  -16.48188   17.29978
       H    11.09608  -15.96877   12.19383
       O    11.49617  -15.58449   12.93751
      H1    12.26603  -15.17691   12.52866
       H    12.93656  -12.69991    9.70009
       O    13.21299  -13.44334    9.14867
      H1    14.18782  -13.39463    9.36497
       H     5.08786  -18.27982    8.28266
       O     4.27914  -18.04321    8.77771
      H1     4.50751  -18.04010    9.67790
       H    12.64297  -13.61366   15.32082
       O    13.43508  -14.22115   15.30291
      H1    13.26383  -14.78022   16.05559
       H    17.52606  -19.57062   11.37813
       O    17.78653  -19.67526   10.47903
      H1    17.68321  -18.73518   10.15607
       H     9.72377  -13.21731   13.92105
       O    10.44037  -13.67026   14.47045
      H1    10.64502  -14.45652   13.92623
       H     6.22317  -17.84403   15.93828
       O     6.67770  -18.66698   16.13567
      H1     6.02502  -18.90206   16.83294
       H     8.54550  -11.32822   13.94832
       O     8.25466  -12.08239   13.46687
      H1     7.49523  -12.42306   14.02675
       H     1.37317  -16.67478   16.13740
       O     0.61795  -16.07766   16.42643
      H1    -0.10154  -16.70933   16.42192
       H     2.05042  -12.95812   16.60640
       O     2.81604  -13.05574   16.02727
      H1     2.52778  -12.78335   15.12674
       H     5.18096  -16.25391   19.02163
       O     5.23596  -16.44007   18.12355
      H1     4.57925  -15.79762   17.75272
       H     6.24756  -13.24152    7.82441
       O     7.13889  -13.22229    8.12400
      H1     7.47640  -14.05181    7.68383
       H    12.75833  -15.72103    9.29269
       O    12.69491  -16.65433    9.08500
      H1    13.14254  -17.02452    9.91169
       H     9.33718  -19.29709   11.12312
       O     8.71739  -18.96472   11.75980
      H1     7.87480  -19.04895   11.27560
       H     1.04770  -15.27529   14.81098
       O     1.15350  -14.82207   13.93451
      H1     0.20448  -14.69589   13.76971
       H     5.63005  -15.21199   10.77504
       O     4.79841  -15.02916   10.32726
      H1     4.11763  -15.27423   10.97586
       H     7.74515  -16.04325   11.68630
       O     6.80469  -15.98969   11.89535
      H1     6.93293  -15.89511   12.84314
       H    15.16827  -15.36581   13.14917
       O    15.75085  -15.30828   13.91024
      H1    15.32109  -15.14178   14.75583
       H    15.92781  -15.22670    8.01028
       O    15.52059  -15.97075    8.51964
      H1    14.66925  -16.16583    8.13495
       H     8.34746  -19.29946   16.94034
       O     9.20090  -19.79390   17.11115
      H1     9.92504  -19.19879   17.42997
       H     9.08110  -11.47935   10.74530
       O     9.18698  -10.64473   10.29185
      H1     8.74522  -10.85649    9.45179
       H     3.79018  -19.42775   17.04269
       O     4.47034  -19.24016   17.71929
      H1     4.38741  -18.28597   17.95451
       H    12.35128  -16.28281    6.53069
       O    12.07900  -17.13433    6.09661
      H1    12.81449  -17.73178    6.25872
       H    11.63987  -19.24057   10.69895
       O    10.89668  -19.18346   10.07032
      H1    11.08076  -18.36958    9.61529
       H     2.69274  -18.83555    9.04279
       O     1.77593  -19.14813    9.16269
      H1     1.51356  -18.92535    8.22410
       H     4.92835  -12.08559   17.72178
       O     5.45537  -11.60098   17.05295
      H1     6.38404  -11.73575   17.40511
       H     3.42681  -16.60805    7.76014
       O     3.11598  -15.92879    7.09815
      H1     3.62757  -15.13824    7.41212
       H    11.24512  -17.59668   17.70718
       O    11.38527  -18.46118   18.11413
      H1    10.96557  -18.35496   19.00011
       H    15.75633  -11.54337   16.16745
       O    15.71386  -12.54638   16.00460
      H1    14.71425  -12.78631   15.96080
       H    12.66244  -14.12379    7.41189
       O    12.64800  -14.47906    6.50452
      H1    12.22581  -13.79915    5.96798
       H     5.17357  -15.13423   15.15826
       O     4.27412  -15.40230   15.40718
      H1     3.79440  -14.57281   15.52126
       H     5.41783  -19.02489   11.86589
       O     5.89049  -18.59887   11.10757
      H1     6.10373  -17.68441   11.43838
       H     9.32353  -17.41081   11.09941
       O     9.43035  -16.37947   11.06530
      H1     9.83102  -16.33675   10.17080
       H     2.48904  -15.38863   13.06800
       O     3.26688  -15.73801   12.60132
      H1     3.98558  -15.24691   13.07894
       H     7.43338  -13.34229   18.60211
       O     7.60569  -12.65668   17.94608
      H1     8.42118  -12.21725   18.43169
       H     3.52883  -11.97173   13.40699
       O     4.45687  -12.01004   13.36178
      H1     4.80666  -11.29620   14.00083
       H    16.57853  -16.81228   13.75140
       O    17.19828  -17.60430   13.82262
      H1    17.35107  -17.68062   14.78761
       H     4.64017  -14.12869    8.77696
       O     4.51317  -13.84067    7.78493
      H1     4.04617  -13.00366    7.97508
       H    12.10913  -14.61605   18.02001
       O    12.16229  -13.63704   18.24037
      H1    12.90984  -13.57535   18.90384
       H     6.01486  -12.60686   15.75937
       O     6.19114  -13.11776   14.98868
      H1     5.40464  -12.98683   14.40737
       H     8.23252  -15.60180   17.65507
       O     8.07252  -16.36837   18.28443
      H1     7.15983  -16.61386   18.12713
       H    14.01391  -19.16091   10.45646
       O    13.83445  -18.31706   10.97276
      H1    14.25375  -18.47052   11.78882
       H     7.96969  -15.52415   15.18824
       O     7.42563  -16.13827   14.62332
      H1     7.98642  -16.90231   14.31122
       H     8.76665  -19.34684    6.24571
       O     8.54272  -19.51634    7.21125
      H1     8.90978  -18.68588    7.55442
       H    12.05101  -16.71754   14.19188
       O    12.38659  -17.30316   14.90684
      H1    12.04488  -18.14131   14.55563

