180
frame 8 | Written by MDAnalysis XYZWriter (release 2.4.3)
       H   -18.04379    1.93671   -5.66835
       O   -17.78323    2.56045   -6.38308
      H1   -17.03225    2.11857   -6.83251
       H   -17.94932   11.77119   -8.41119
       O   -18.14007   10.78555   -8.44867
      H1   -19.08825   10.81643   -8.56525
       H   -10.96688    7.50795   -5.19831
       O   -10.02307    7.42683   -4.95232
      H1   -10.01572    7.42969   -4.01964
       H   -18.15818   -0.04459   -9.24699
       O   -17.35194    0.35841   -9.61200
      H1   -16.78069    0.58911   -8.89128
       H   -17.05143   11.46253   -4.85585
       O   -17.69598   12.04180   -4.46653
      H1   -18.49796   11.56581   -4.52109
       H   -13.07595    2.25458   -6.60837
       O   -12.35006    1.85838   -6.04449
      H1   -11.49894    2.08850   -6.33563
       H   -10.69375    4.32686   -4.23483
       O    -9.89989    4.56878   -4.70983
      H1    -9.96057    5.51750   -4.77845
       H   -15.84431    5.52257   -2.76793
       O   -14.88272    5.50990   -2.64024
      H1   -14.55823    6.40717   -2.79273
       H   -19.34711    7.27240    1.81010
       O   -18.60239    6.77181    2.19817
      H1   -17.79699    7.03626    1.72995
       H   -16.35379   -0.55308  -10.65278
       O   -15.68662   -0.91777  -11.30598
      H1   -16.05766   -1.63970  -11.88341
       H   -18.09186    3.19157   -9.72633
       O   -17.31501    2.89342  -10.28690
      H1   -17.18557    1.97830  -10.07048
       H   -13.32453    9.37323   -0.32638
       O   -12.66362    9.15717   -1.01469
      H1   -12.51239    8.25065   -0.78491
       H   -15.00336    8.36582   -3.45534
       O   -14.04960    8.15452   -3.36714
      H1   -13.73143    8.53914   -2.52449
       H   -17.74451    0.39018    2.32652
       O   -17.35171    1.29708    2.35974
      H1   -17.94715    2.00897    2.16361
       H   -15.45045   -3.62865   -6.06485
       O   -15.53963   -2.77892   -6.52445
      H1   -14.99214   -2.33546   -5.90503
       H   -14.81566    0.90461  -11.38260
       O   -14.54012    1.77867  -11.12247
      H1   -15.24995    2.18226  -10.67923
       H   -14.39064    8.93689  -10.66260
       O   -13.57500    9.09759  -11.15299
      H1   -13.58768   10.03973  -11.36697
       H   -12.82738    1.99855  -10.19917
       O   -12.10445    1.83027   -9.62485
      H1   -11.78488    0.91650   -9.85670
       H   -11.95331   10.85838   -6.30240
       O   -11.61672   10.45189   -7.12493
      H1   -12.34200   10.48105   -7.70103
       H   -14.24755   13.11214   -2.43133
       O   -13.92535   12.35011   -1.95877
      H1   -14.63957   11.72114   -2.03067
       H   -18.62116    9.09588  -13.31842
       O   -18.46337    9.90524  -12.85458
      H1   -19.28097   10.31178  -12.57148
       H   -16.42077    3.01430   -4.88412
       O   -16.00932    2.44071   -4.23141
      H1   -15.40497    3.02909   -3.79214
       H   -16.40119    6.18055  -13.43556
       O   -15.59083    5.73435  -13.17173
      H1   -14.89022    6.37508  -13.24254
       H   -19.00986    9.59847   -5.51986
       O   -19.56231   10.10872   -4.95113
      H1   -19.94362    9.41859   -4.40363
       H   -18.83608   -2.43826   -6.13038
       O   -18.24021   -1.96440   -5.64043
      H1   -17.42547   -1.93169   -6.12949
       H   -15.51907    7.36843   -8.30654
       O   -15.83412    8.19683   -8.60395
      H1   -16.54791    8.02838   -9.26643
       H   -13.51013    6.91655   -7.18555
       O   -13.95699    6.36860   -7.86239
      H1   -13.21309    6.04995   -8.44532
       H   -16.71691    9.56697   -4.00467
       O   -16.68026    8.73502   -3.53038
      H1   -17.38761    8.23636   -4.04618
       H   -13.13407    3.11498   -8.32530
       O   -13.83800    3.45156   -7.73514
      H1   -13.83478    4.42352   -7.82801
       H   -13.88719   -0.37312   -4.34903
       O   -14.70069   -0.42265   -4.82065
      H1   -14.97616    0.52874   -4.78630
       H   -11.66499    6.88567   -9.50071
       O   -11.86630    5.92755   -9.50072
      H1   -11.36969    5.49845   -8.78441
       H   -18.64865    8.27699   -7.23930
       O   -17.91763    8.33725   -6.57922
      H1   -17.16300    8.68791   -7.08905
       H   -11.79800   11.46467   -3.84273
       O   -12.14025   11.66347   -4.71770
      H1   -13.09996   11.60069   -4.67294
       H   -15.01010    4.04927    0.33451
       O   -14.59659    4.87609    0.04264
      H1   -14.67419    4.83460   -0.91358
       H   -14.62193   10.01937    1.44567
       O   -14.38856   10.41811    0.54916
      H1   -15.20082   10.50965    0.07058
       H   -15.14614    2.31510   -8.00760
       O   -15.53363    1.46466   -7.96663
      H1   -14.80050    0.83620   -7.79946
       H   -17.95470    3.17839  -12.14810
       O   -18.25869    2.89323  -13.05183
      H1   -18.27874    1.88530  -12.92697
       H   -18.36957    5.72469   -2.15573
       O   -17.48734    5.57628   -2.57399
      H1   -17.62968    5.48414   -3.56465
       H   -12.76028    0.03077   -7.47580
       O   -13.65300   -0.34403   -7.57386
      H1   -13.97412   -0.44479   -6.68122
       H   -18.05311   14.10438   -1.84894
       O   -18.18261   13.17025   -2.00193
      H1   -18.12683   13.00916   -3.03414
       H   -16.48430    6.24156  -11.26964
       O   -17.08728    6.68453  -10.66863
      H1   -17.76196    5.96388  -10.48033
       H   -18.59676    4.82292    1.79531
       O   -18.47875    3.87301    1.99160
      H1   -18.12715    3.99302    2.90382
       H   -18.09079   -2.72018   -2.35972
       O   -18.94143   -2.27423   -2.47149
      H1   -18.84601   -1.57141   -3.16269
       H   -18.59086   -0.20675   -4.78500
       O   -18.77734    0.70708   -4.50381
      H1   -19.74297    0.73372   -4.44435
       H   -12.66166    3.00256   -4.80282
       O   -12.51138    3.61724   -4.06588
      H1   -13.29895    4.21118   -4.10521
       H   -14.82747   11.05757   -6.22002
       O   -14.89839   11.29961   -5.30015
      H1   -14.63846   12.21318   -5.33784
       H   -15.68863   -0.45306   -3.41482
       O   -16.25852   -0.57359   -2.62429
      H1   -16.51984    0.29336   -2.28652
       H   -17.87035    6.53717   -5.94587
       O   -18.05890    5.77228   -5.42655
      H1   -18.87266    5.33411   -5.73516
       H   -17.40914   10.31527   -9.97090
       O   -16.81848   10.52406  -10.74738
      H1   -17.43549   10.15664  -11.45341
       H   -14.29305    1.98987    1.39935
       O   -15.09014    2.58012    1.38800
      H1   -15.84004    2.05392    1.67818
       H   -19.40993    2.87366   -1.22073
       O   -19.84921    3.66833   -0.85563
      H1   -19.35373    3.74601   -0.04977
       H   -17.41718    2.17026   -2.08715
       O   -18.10831    1.63342   -1.67609
      H1   -18.60582    1.31785   -2.45711
       H   -18.74055    8.70923   -0.59870
       O   -17.81246    8.70369   -0.82654
      H1   -17.62931    8.43693   -1.72029
       H   -19.20192    7.08265  -13.35663
       O   -18.21998    7.17741  -13.39484
      H1   -18.03194    7.43040  -12.45209
       H   -17.00278   10.56956   -1.58355
       O   -16.33710   11.25822   -1.37900
      H1   -16.80635   12.09690   -1.48503
       H   -15.69094    6.14091    0.36875
       O   -16.19794    6.87088    0.76864
      H1   -16.53336    7.34422   -0.03700
       H   -15.57817   -2.53415   -0.60951
       O   -14.83775   -1.89236   -0.84770
      H1   -15.22776   -1.32344   -1.54488
       H   -12.30858    8.77788   -6.57137
       O   -12.57456    8.08789   -6.00221
      H1   -13.05741    8.38703   -5.20907
       H   -14.95352   10.09034   -8.24814
       O   -14.38929   10.73019   -7.81796
      H1   -14.43045   11.58832   -8.26019
       H   -16.05354   14.41329   -5.93988
       O   -16.98721   14.40837   -6.00494
      H1   -17.25409   13.57840   -5.47917

