180
frame 4 | Written by MDAnalysis XYZWriter (release 2.4.3)
       H    -8.21926    1.28508   12.13443
       O    -7.83009    0.41708   12.27728
      H1    -7.32332    0.48592   13.10509
       H   -11.36436   -6.99090   17.84625
       O   -12.30956   -7.02987   18.09750
      H1   -12.49517   -6.45931   18.85681
       H   -13.22764    3.90038   12.37842
       O   -12.87646    3.19905   11.84101
      H1   -12.51764    2.60819   12.50772
       H    -4.00929   -3.06578   12.82989
       O    -3.95409   -2.12347   12.60244
      H1    -3.03658   -2.08005   12.39355
       H   -13.02334    2.34489   16.83421
       O   -12.19623    2.79226   16.60419
      H1   -11.62238    2.30612   17.20217
       H   -13.95667   -0.68782   14.88599
       O   -13.18199   -0.93147   14.46374
      H1   -13.36092   -1.50716   13.70523
       H    -7.90192   -4.94860   18.35546
       O    -7.88506   -5.17612   19.28625
      H1    -7.13912   -5.76099   19.36123
       H    -9.69292   -3.45927   16.44186
       O   -10.61528   -3.73950   16.38817
      H1   -10.72325   -4.66864   16.25763
       H    -9.30220   -8.37557   16.95229
       O    -9.47468   -9.23270   16.48341
      H1    -9.89624   -8.88666   15.70103
       H    -4.71651    3.60650   16.93692
       O    -3.80809    3.38973   17.28799
      H1    -3.30442    4.16914   16.98056
       H    -4.26866   -5.15072   13.65292
       O    -5.00192   -4.91187   13.04944
      H1    -5.04559   -5.55050   12.35303
       H   -10.77242   -4.84764    8.91201
       O   -10.58895   -5.54969    9.56773
      H1    -9.85140   -6.00018    9.14783
       H    -8.08747   -4.08626   13.31612
       O    -7.51945   -3.70708   14.00733
      H1    -6.62684   -4.00721   13.68105
       H    -8.87666    3.38258   10.84521
       O    -9.15925    2.77687   11.51592
      H1    -9.94388    2.25253   11.15959
       H    -7.55343    1.58579   14.95357
       O    -6.85040    2.12653   14.67027
      H1    -7.15720    2.92551   14.11819
       H    -9.41275   -4.53434   10.66691
       O    -8.83344   -4.27606   11.36793
      H1    -8.10793   -3.77361   10.95115
       H    -6.62620   -8.29601   15.11847
       O    -6.84949   -7.40047   14.88318
      H1    -7.43908   -7.54291   14.10769
       H    -1.14536   -4.20871   13.91557
       O    -2.08889   -4.49700   13.98400
      H1    -2.08366   -4.56504   14.99266
       H    -6.68328   -8.60369   18.32596
       O    -6.59973   -9.18503   19.08637
      H1    -6.91006  -10.06376   18.64944
       H   -14.23269    3.06131   17.82605
       O   -14.78749    2.29570   17.44734
      H1   -14.79098    1.49159   18.01401
       H   -13.03570   -7.49061   12.48656
       O   -13.72580   -7.54141   13.15177
      H1   -13.86540   -6.63527   13.34288
       H    -9.59618   -1.89921   19.83542
       O   -10.42696   -1.40810   19.62649
      H1   -10.80695   -1.87842   18.88513
       H    -6.60785   -0.82394   19.21076
       O    -6.86241   -0.51019   18.35299
      H1    -6.10494   -0.61080   17.74004
       H   -10.76987    0.27341   18.18352
       O   -10.49411    1.13264   17.83415
      H1    -9.62826    1.40291   18.18255
       H   -14.49215   -0.93637   11.17642
       O   -15.11036   -0.35750   10.68447
      H1   -15.93583   -0.54543   11.17302
       H    -5.56714   -1.07938   13.47543
       O    -6.23636   -0.78643   14.12644
      H1    -6.94791   -1.42160   14.01721
       H    -6.92464   -2.10840   10.38864
       O    -6.61439   -2.96799   10.80865
      H1    -6.19419   -2.72874   11.63021
       H    -8.20847   -7.45651   12.03602
       O    -8.73869   -7.17738   12.77522
      H1    -8.84266   -6.24702   12.70712
       H    -1.73975   -0.40887   18.83848
       O    -1.74337   -1.40084   18.82831
      H1    -1.43158   -1.68627   19.69894
       H    -5.11016    1.73993   15.06224
       O    -4.18213    1.45839   15.19947
      H1    -3.76363    2.10861   15.85094
       H   -13.51044   -6.20949   16.93249
       O   -13.90743   -5.55907   16.39587
      H1   -14.79590   -5.67527   16.09830
       H   -13.77289   -2.90742   12.14997
       O   -13.40474   -2.03318   12.06532
      H1   -12.47970   -2.28712   11.81705
       H    -2.11093   -5.59096   19.84485
       O    -2.67299   -5.35146   19.11983
      H1    -3.29137   -4.62363   19.33340
       H   -12.13394   -1.01729   16.34093
       O   -11.97722   -1.45691   17.18409
      H1   -11.57074   -2.28190   16.91158
       H    -6.88487    5.42051   13.48655
       O    -7.17669    4.62628   13.04421
      H1    -6.57187    4.49247   12.30521
       H   -15.94659   -2.86786   16.61975
       O   -16.77379   -2.88536   16.02920
      H1   -17.46069   -3.27483   16.54469
       H    -2.23029   -4.52191   17.49068
       O    -1.78006   -4.35643   16.60875
      H1    -1.72353   -3.40222   16.49130
       H    -7.98153   -1.77393   17.34355
       O    -8.31857   -2.43958   16.66845
      H1    -8.56075   -1.83103   15.89653
       H    -8.03016    2.02791   19.79798
       O    -8.05475    1.77881   18.89341
      H1    -7.51533    0.95646   18.84309
       H   -11.61525   -6.66565   13.54616
       O   -11.46109   -5.90273   12.98264
      H1   -12.25884   -5.31122   13.16425
       H   -10.01829   -8.25188   13.44127
       O   -10.70660   -8.69959   13.99579
      H1   -11.09513   -9.46798   13.50903
       H    -7.56390   -4.42459   15.98249
       O    -7.58744   -5.28123   16.43054
      H1    -7.36127   -5.94073   15.78255
       H    -9.35654   -6.63703   18.43347
       O    -9.51166   -6.67794   17.45499
      H1    -8.85188   -6.13911   17.03940
       H    -9.87576    0.49165   14.83956
       O    -9.06349    0.40760   15.32175
      H1    -9.34923    0.76280   16.19407
       H    -4.97043   -1.25110   15.77543
       O    -4.61414   -1.14784   16.65396
      H1    -4.10687   -0.34726   16.56294
       H    -5.06349   -4.31672    9.67764
       O    -4.57377   -4.84384    9.00943
      H1    -4.68638   -4.43256    8.16814
       H    -9.73752   -2.95241   11.67370
       O   -10.41191   -2.19993   11.53889
      H1    -9.95706   -1.36491   11.38517
       H    -3.83438   -8.43251   17.90345
       O    -4.30290   -7.62030   18.01670
      H1    -3.60290   -7.09055   18.41814
       H   -11.92358    0.80373   10.53940
       O   -11.05455    0.80824   10.95985
      H1   -11.30114    0.42670   11.83782
       H    -3.26735   -2.52657   19.15072
       O    -4.07764   -3.03933   18.96869
      H1    -4.23299   -2.73554   18.04538
       H   -11.64068    4.61654   16.82933
       O   -11.62105    5.57080   16.80252
      H1   -11.30603    5.86182   15.97755
       H    -2.04034    2.25905   13.10741
       O    -2.50565    1.53123   12.71996
      H1    -3.07387    1.19704   13.44262
       H    -8.43379   -0.55665    9.28140
       O    -7.60424   -0.65726    9.77264
      H1    -7.72546   -0.22690   10.69067
       H    -6.85982    3.20923   17.82357
       O    -6.46597    3.59427   17.02286
      H1    -6.78531    3.08856   16.27775
       H    -4.02564    1.51892   11.85533
       O    -4.82149    1.79503   11.43018
      H1    -5.41289    1.01900   11.47971
       H   -14.15801   -3.86606   17.17821
       O   -14.47232   -3.02163   17.53643
      H1   -13.77093   -2.39319   17.53777
       H    -5.15554   -6.33187   15.04561
       O    -4.28590   -6.25799   15.52587
      H1    -4.35341   -6.75128   16.33654
       H   -13.73888   -4.71858   14.74323
       O   -14.01532   -4.58312   13.81250
      H1   -14.84445   -4.11303   13.82819
       H   -12.04000    1.68021   14.78302
       O   -11.81970    1.35277   13.91647
      H1   -12.35908    0.49714   13.92894
       H   -11.55624   -2.37077    9.66510
       O   -12.18544   -2.64093    9.02144
      H1   -11.72852   -2.97876    8.24006

