180
frame 10 | Written by MDAnalysis XYZWriter (release 2.4.3)
       H    11.01534   -5.36427    2.56604
       O    11.65479   -5.41542    3.30397
      H1    11.22789   -5.12086    4.12484
       H    12.72173   -9.40436   -7.25530
       O    12.81463  -10.07874   -6.53660
      H1    13.06093   -9.55349   -5.76857
       H    16.70863   -4.59830   -4.36092
       O    17.03339   -3.93236   -3.75704
      H1    17.96270   -4.25952   -3.57481
       H    16.03917    1.11156    0.56994
       O    15.59249    1.97205    0.44857
      H1    15.84173    2.22185   -0.43641
       H    12.67746   -5.13431   -3.59250
       O    12.73119   -5.36317   -4.56609
      H1    12.20576   -6.15381   -4.65139
       H    15.04999   -0.16016    5.40309
       O    15.49245   -1.04615    5.35129
      H1    15.90440   -0.96484    4.46239
       H     7.38656   -5.37871   -3.28313
       O     8.00516   -5.34298   -4.05130
      H1     7.53810   -5.92126   -4.68324
       H    13.25455  -10.35677   -1.84814
       O    12.59970  -10.74833   -2.49993
      H1    12.17941  -11.46958   -1.98023
       H    13.81783   -5.88878   -1.64028
       O    13.32972   -5.07986   -1.72463
      H1    14.06825   -4.46276   -1.46726
       H    13.40771   -8.24938   -4.17160
       O    14.15292   -8.49625   -4.77021
      H1    14.47588   -7.68556   -5.19082
       H    16.97291   -0.10270   -2.09152
       O    16.07892   -0.37533   -2.23833
      H1    15.56342    0.35608   -2.54647
       H    14.22874    2.50717   -3.29094
       O    14.78630    2.35043   -2.49370
      H1    14.14507    2.75801   -1.87500
       H    15.26364   -6.00569   -6.23138
       O    15.41345   -5.98610   -5.28010
      H1    14.59460   -5.65381   -4.88586
       H    11.40439   -7.58264   -1.90595
       O    11.47564   -7.99282   -2.83128
      H1    11.72202   -8.94303   -2.65048
       H    11.71399   -4.64008   -0.74279
       O    10.77255   -4.45840   -0.64921
      H1    10.65207   -4.18879    0.23987
       H    14.84637   -3.43097    2.70194
       O    14.78561   -2.50412    2.35985
      H1    15.08971   -2.74501    1.45844
       H    18.32904   -2.14200   -6.01470
       O    17.39623   -2.43184   -6.00171
      H1    17.24567   -2.62013   -5.04511
       H     9.88173   -3.70065   -5.32577
       O     9.88481   -4.00396   -6.26077
      H1    10.81488   -3.85076   -6.49181
       H    12.90603   -2.32894    5.31756
       O    12.63347   -2.25838    4.38724
      H1    13.47731   -2.32285    3.91504
       H    17.84384   -1.07425    2.92101
       O    18.46053   -1.66501    3.37354
      H1    18.39403   -2.39725    2.72506
       H    18.71716   -7.20879   -1.15871
       O    18.10743   -6.77792   -1.73833
      H1    18.57133   -6.78993   -2.60071
       H    13.87707   -1.34806   -0.64049
       O    14.70779   -1.73203   -0.41340
      H1    15.28054   -1.22410   -1.03761
       H     8.11887   -2.32184    3.66176
       O     8.78924   -1.63619    3.62399
      H1     9.50161   -2.19890    3.25372
       H    16.83805   -8.19929   -7.46347
       O    17.37041   -7.63174   -6.86615
      H1    16.98434   -7.73063   -5.99202
       H    17.50576   -3.26964    0.08335
       O    17.97367   -2.96027    0.85214
      H1    18.36842   -2.18439    0.53109
       H     8.29927    0.18370   -2.01197
       O     7.83347   -0.41745   -1.33263
      H1     8.55286   -0.40246   -0.66099
       H    13.57138    1.33934   -5.37333
       O    13.89664    0.44266   -5.47754
      H1    14.23753    0.41598   -6.37510
       H    19.02847   -6.33497    4.95012
       O    18.79785   -6.82349    4.13187
      H1    18.33455   -6.15387    3.68310
       H    16.15791   -7.02338   -1.45554
       O    15.30065   -7.05390   -1.11493
      H1    14.90266   -7.90560   -1.34700
       H    14.43024   -7.17680   -8.43830
       O    14.41279   -6.37487   -7.86605
      H1    14.90946   -5.70837   -8.44200
       H    14.58583   -9.51243    2.66995
       O    15.23395   -8.82513    2.97555
      H1    15.25111   -8.20154    2.27102
       H    15.63181   -0.95932    2.30677
       O    15.91553   -0.13489    2.67245
      H1    15.09605    0.43738    2.65712
       H    10.64700   -2.41007    1.20644
       O    10.68042   -3.12255    1.86824
      H1    11.49195   -3.01562    2.40737
       H     9.11531   -2.09584   -1.83539
       O     9.14785   -2.93025   -2.35115
      H1     9.89887   -3.43958   -1.98617
       H    14.33223   -2.72683   -7.61890
       O    15.16253   -2.48177   -8.02658
      H1    15.79560   -2.45592   -7.22365
       H    12.58148   -8.03699    4.81311
       O    12.35291   -8.86221    4.36832
      H1    12.32970   -8.59651    3.41430
       H    19.09159   -9.50514   -2.18241
       O    18.86124  -10.15876   -1.54639
      H1    18.23009   -9.85429   -0.87098
       H    10.29213   -5.97291   -5.21261
       O    10.47229   -6.91554   -5.28718
      H1    10.40112   -7.22562   -4.39543
       H    11.75836   -0.67353   -2.00026
       O    12.25880   -1.38666   -1.50336
      H1    12.52929   -1.85178   -2.34278
       H     8.10421   -3.68712   -1.18282
       O     7.86197   -4.25095   -0.40566
      H1     8.74501   -4.41569   -0.06345
       H     6.29178   -3.19403   -4.81374
       O     7.00633   -2.58643   -4.60587
      H1     7.73002   -3.24762   -4.31607
       H     8.68968   -8.16908   -4.48259
       O     8.33321   -9.02975   -4.61965
      H1     8.75213   -9.38439   -5.40142
       H    13.26976   -1.18100   -5.04235
       O    12.84936   -1.87999   -4.51741
      H1    11.89354   -1.67074   -4.48787
       H     9.41179    0.35197    1.57400
       O     9.13810   -0.40190    1.12623
      H1     8.53421   -0.78774    1.80008
       H    12.47474   -2.76975   -6.08901
       O    12.54028   -3.32936   -6.88778
      H1    13.04546   -4.00448   -6.46010
       H     9.51757   -1.06969   -5.24886
       O    10.23266   -1.45341   -4.70015
      H1     9.87509   -1.82083   -3.93181
       H    12.20507   -7.24649   -7.91884
       O    12.21047   -8.16241   -8.17780
      H1    11.23964   -8.25654   -8.31260
       H    17.59008   -4.25190   -6.37487
       O    18.13352   -4.95306   -6.81228
      H1    17.62162   -5.77150   -6.72392
       H    16.48773   -3.92244   -2.06025
       O    16.32312   -3.85256   -1.09156
      H1    15.83418   -3.01145   -0.91855
       H    16.37015   -7.24382    0.20241
       O    17.13748   -7.17365    0.88278
      H1    16.99304   -6.28418    1.15382
       H    16.45143   -9.73585   -5.42854
       O    16.90303   -9.47442   -4.65605
      H1    16.16475   -9.47874   -4.06098
       H    10.33753   -6.22666   -0.40809
       O    10.24038   -7.20548   -0.33470
      H1     9.32273   -7.33426   -0.32949
       H    11.13912    0.42501   -3.53218
       O    10.76629    0.79834   -2.67052
      H1    11.41756    1.45192   -2.29432
       H    13.83017   -9.19808    0.17713
       O    14.21904   -9.63955   -0.60882
      H1    15.01489  -10.09198   -0.26351
       H    12.93264   -0.14996    2.15537
       O    13.15364    0.33796    2.92938
      H1    12.85131   -0.18821    3.62311
       H    11.28652   -8.18548    1.07071
       O    12.13627   -8.57138    1.39469
      H1    11.81018   -9.48570    1.43552
       H    15.15200   -5.84023    3.56741
       O    14.83230   -5.40952    2.76555
      H1    13.87270   -5.44089    2.88071
       H    16.71702  -10.51107    1.14489
       O    16.75101   -9.92680    0.41974
      H1    17.03281   -9.08746    0.89367
       H     8.29079   -5.66329    2.17947
       O     9.06219   -5.61872    1.54347
      H1     8.88660   -6.46722    1.13444
       H    18.94759    1.00776    0.36759
       O    18.35919    0.86015   -0.38457
      H1    18.35190    1.80486   -0.66041

