180
frame 2 | Written by MDAnalysis XYZWriter (release 2.4.3)
       H    -1.18637  -10.11973    0.59020
       O    -1.37850  -10.87807    0.00528
      H1    -0.86580  -11.54528    0.46294
       H     1.19034   -7.08889    1.81994
       O     1.00302   -7.35747    0.92237
      H1     1.86598   -7.28886    0.45644
       H    -5.45709   -7.93392   -2.24116
       O    -5.23954   -8.09849   -1.30130
      H1    -4.83227   -7.32617   -0.92967
       H     0.68629  -11.84506   -6.62348
       O     0.11390  -12.39833   -7.15642
      H1    -0.42586  -12.96335   -6.55831
       H    -6.43159   -8.04583    1.80050
       O    -7.26360   -7.55859    1.50243
      H1    -7.57735   -7.85139    0.61746
       H     0.22033   -7.24311   -1.06907
       O     0.65446   -7.05173   -1.89896
      H1     0.41915   -7.89741   -2.39981
       H     0.10415   -5.63643   -3.35254
       O    -0.06698   -4.64429   -3.44856
      H1     0.83977   -4.34946   -3.52897
       H    -2.93320   -5.68825   -5.36103
       O    -3.82125   -6.11423   -5.29025
      H1    -4.06760   -6.27575   -6.24570
       H     3.20235  -11.16543   -5.63843
       O     2.25214  -11.15505   -5.82284
      H1     1.85698  -11.65464   -5.11043
       H    -0.89333   -5.66192   -6.23055
       O    -1.25682   -4.84106   -5.80816
      H1    -0.78595   -4.88335   -4.93202
       H    -1.42677   -4.73403    1.45254
       O    -1.30183   -5.20238    0.55232
      H1    -1.07161   -4.45075   -0.08755
       H    -8.62797   -7.67643    2.34478
       O    -9.26158   -7.57393    3.06458
      H1    -9.84774   -8.34320    2.89048
       H     3.10116   -9.96822    1.39306
       O     2.94718  -10.47146    0.60111
      H1     3.00590   -9.87757   -0.16831
       H    -1.87558  -14.44857   -5.09093
       O    -1.65587  -13.55874   -5.32020
      H1    -2.06330  -12.94134   -4.73009
       H     0.04199  -13.31437   -4.39581
       O     0.86350  -12.90233   -4.16367
      H1     0.49532  -12.36320   -3.42647
       H     0.57381   -2.76485   -1.24263
       O    -0.30995   -3.19094   -1.29078
      H1    -0.37415   -3.75230   -2.07404
       H    -9.26858  -13.14843    2.87750
       O    -8.89091  -12.26813    2.94895
      H1    -8.37857  -12.30561    2.11539
       H    -3.80136  -10.16881    6.52516
       O    -3.57702   -9.86796    5.62972
      H1    -3.57585  -10.66499    5.09821
       H    -3.22251  -11.15315   -2.90740
       O    -2.78297  -11.21102   -3.79236
      H1    -2.88126  -10.34661   -4.18822
       H    -8.42218   -6.18510   -0.99852
       O    -8.63802   -5.36144   -0.51768
      H1    -7.90776   -5.14728    0.10865
       H    -4.91401  -11.27461    0.60162
       O    -4.75172  -11.11437    1.53905
      H1    -4.97410  -11.91126    2.05497
       H    -2.48522   -7.54266    0.17803
       O    -1.81231   -8.17943    0.40386
      H1    -1.09100   -7.62882    0.70827
       H    -4.24134  -13.78349   -6.59700
       O    -4.54562  -14.65834   -6.32612
      H1    -4.74129  -14.61366   -5.38126
       H    -4.68157  -14.83881   -0.71223
       O    -4.08661  -14.33484   -1.30469
      H1    -3.27969  -14.89514   -1.38742
       H    -3.01346  -14.55945    5.39119
       O    -3.12557  -13.62340    5.28429
      H1    -3.79823  -13.57588    4.59013
       H     2.53084   -8.46825   -7.02822
       O     1.79874   -8.47317   -6.38967
      H1     1.87250   -9.32940   -5.91954
       H    -5.83631  -12.43146    3.89360
       O    -5.18923  -13.06785    3.42642
      H1    -5.63489  -13.92135    3.25098
       H    -7.07139   -6.96209   -4.28884
       O    -6.39068   -7.47462   -3.89895
      H1    -6.23637   -8.17557   -4.52383
       H    -8.66405   -8.97876   -1.10235
       O    -8.01418   -8.25682   -0.92571
      H1    -7.16117   -8.48156   -1.23182
       H    -8.32960  -10.33082   -5.57494
       O    -7.46989  -10.28083   -5.14731
      H1    -7.51119  -10.62655   -4.28326
       H     2.76892   -8.48259   -1.48025
       O     2.78746   -9.36156   -1.89647
      H1     2.76841   -9.21619   -2.86033
       H    -0.81015  -15.78391   -1.17533
       O    -1.76030  -15.84644   -1.06274
      H1    -2.06561  -16.73132   -1.26897
       H    -5.19981   -5.09280   -3.61134
       O    -5.28642   -4.80787   -2.68944
      H1    -4.75881   -4.00109   -2.64275
       H    -1.30984  -10.41423    3.02500
       O    -2.12406  -10.93476    3.10589
      H1    -2.64670  -10.52694    2.41669
       H    -3.03246  -12.16604   -7.12745
       O    -3.85610  -12.47637   -7.51601
      H1    -4.47140  -11.72072   -7.54410
       H    -0.87200  -10.83516   -8.01544
       O    -1.70948  -10.39305   -7.76376
      H1    -1.73107  -10.16668   -6.81348
       H    -1.97178  -15.51835    0.95399
       O    -1.91213  -15.94553    1.79478
      H1    -1.82040  -15.14705    2.35318
       H    -6.14858  -14.10463   -3.44446
       O    -5.42674  -14.66655   -3.59309
      H1    -4.86963  -14.51828   -2.77513
       H    -9.20571  -10.60571   -2.26955
       O    -9.96688  -10.29552   -1.77385
      H1   -10.31487   -9.48100   -2.22283
       H    -7.78838  -12.64507   -2.59927
       O    -7.56804  -11.73190   -2.52158
      H1    -6.66221  -11.79935   -2.19130
       H    -4.64932  -10.96972   -1.20149
       O    -5.24016  -11.73950   -1.07786
      H1    -4.67572  -12.50444   -0.85965
       H    -0.15689  -10.24178    4.17838
       O     0.11504   -9.67017    3.40275
      H1    -0.31070   -8.81541    3.56716
       H     0.77177  -13.86989   -1.32861
       O     1.11639  -14.59566   -0.71955
      H1     1.78330  -15.12504   -1.23385
       H    -7.09091  -15.71564   -0.77544
       O    -6.62360  -15.07158   -0.22343
      H1    -7.16378  -14.32274   -0.03709
       H     1.83649   -9.61941    3.07276
       O     2.81576   -9.66550    3.18190
      H1     2.97845  -10.56629    3.59733
       H    -1.55301   -8.30949   -5.55794
       O    -2.17723   -8.66812   -4.97450
      H1    -2.81672   -7.92820   -4.87678
       H    -2.23553   -7.69302    4.32106
       O    -1.92637   -7.63536    3.43073
      H1    -2.72965   -7.71974    2.91327
       H    -3.19635   -5.57640    0.14389
       O    -4.13863   -5.80893   -0.02781
      H1    -4.27794   -5.57565   -0.92125
       H    -7.37364  -12.03805   -0.21153
       O    -7.76510  -12.62973    0.42526
      H1    -8.74637  -12.58531    0.31489
       H     1.62673  -11.86468    0.81875
       O     0.84130  -12.28068    1.11013
      H1     0.92543  -13.21295    0.76401
       H    -1.50817  -12.81862    3.00351
       O    -1.31283  -13.68592    3.30531
      H1    -1.82022  -13.60473    4.14269
       H     0.28743   -7.70271   -7.08391
       O    -0.55229   -7.23757   -6.99293
      H1    -1.07103   -7.32876   -7.81487
       H    -6.25752  -10.54599   -6.82295
       O    -5.64050  -10.48813   -7.54466
      H1    -6.07335  -10.95304   -8.26247
       H    -5.19029   -9.62876    2.30217
       O    -5.19664   -8.74470    2.68375
      H1    -5.53234   -8.73336    3.56600
       H    -3.39764   -4.82929    3.16178
       O    -2.46769   -4.93912    3.13793
      H1    -2.27253   -5.91152    3.15068
       H     0.02809  -10.08435   -2.87880
       O    -0.02968   -9.29626   -3.49556
      H1    -0.93044   -9.21926   -3.91729
       H    -3.78253   -8.95819   -1.28659
       O    -3.39138   -9.78366   -1.49930
      H1    -2.66069  -10.03047   -0.92209
       H     0.07833  -11.08320   -0.96525
       O     0.67133  -11.49561   -1.71041
      H1     1.54121  -11.13231   -1.56059
       H    -4.57731   -4.55921   -5.78803
       O    -5.16469   -3.81746   -5.80973
      H1    -5.46595   -3.78933   -6.70967
       H    -6.75712   -5.97454    1.36610
       O    -6.55257   -5.02095    1.47981
      H1    -5.74316   -4.84111    1.03433

