180
frame 0 | Written by MDAnalysis XYZWriter (release 2.4.3)
       H    13.42944  -12.61604    4.32844
       O    12.68761  -12.47121    3.67834
      H1    12.26242  -13.26709    3.73700
       H     7.79161    0.21368   -0.46204
       O     7.58161   -0.56905    0.06593
      H1     8.41867   -0.81354    0.52556
       H     6.08049   -1.69219    2.84546
       O     5.96132   -1.98826    1.90086
      H1     6.51162   -1.40610    1.36121
       H     4.47782   -7.53092    3.17780
       O     5.22311   -7.58542    2.53777
      H1     4.81279   -7.39991    1.64404
       H     9.26236  -13.80345    0.39795
       O     8.71009  -13.65800   -0.36220
      H1     8.99849  -12.77521   -0.74656
       H    10.91585   -1.20110   -0.60262
       O    11.49413   -1.26772   -1.41753
      H1    11.98134   -2.14172   -1.35586
       H     9.14969   -9.56768    5.41566
       O     8.25996   -9.66045    5.11975
      H1     8.46732   -9.87410    4.19754
       H    15.92949   -4.74167    2.33508
       O    16.00466   -5.03567    1.35516
      H1    15.08927   -5.42973    1.18618
       H    13.33235  -11.01266    0.73359
       O    12.88502  -10.20050    0.84893
      H1    12.04851  -10.29688    0.46666
       H    17.25766   -9.52996   -0.00490
       O    17.28958   -8.96834    0.77296
      H1    16.67159   -9.34757    1.38205
       H     5.70517   -6.18402    3.23676
       O     6.17187   -5.39115    3.65547
      H1     5.44239   -4.81607    4.07645
       H     5.67463   -3.22529    0.62986
       O     5.59956   -3.90345   -0.01631
      H1     6.27204   -3.72662   -0.66739
       H     7.31561   -6.51381    5.05579
       O     8.09214   -6.73572    5.57890
      H1     8.02045   -7.68349    5.44399
       H    13.38313  -12.61746    2.06202
       O    13.39415  -12.82298    1.11655
      H1    14.30137  -13.25486    1.05745
       H    13.08559   -4.32338   -1.75189
       O    12.25893   -4.02130   -1.30400
      H1    11.63610   -3.99749   -2.05113
       H    16.75958  -11.42079    3.58374
       O    16.09859  -11.09198    4.19264
      H1    15.51634  -10.54285    3.64489
       H     7.89087  -11.07406   -1.73419
       O     8.79885  -11.31735   -1.82930
      H1     9.12918  -10.89808   -2.63756
       H     7.13394   -5.36359    2.25314
       O     7.55519   -5.39625    1.35732
      H1     6.89005   -5.13954    0.73120
       H    14.55240   -6.61656    4.45469
       O    13.76318   -6.06655    4.55963
      H1    13.38272   -6.37016    5.41839
       H    12.40096   -4.59615    6.75555
       O    13.24751   -4.24519    7.02335
      H1    13.50938   -3.69295    6.32687
       H     3.77589  -10.34556    2.13672
       O     4.77986  -10.30379    2.08011
      H1     4.91302   -9.33718    2.10310
       H    14.12374   -9.31413    1.91104
       O    15.01221   -9.32978    2.23956
      H1    15.14723   -8.54133    2.75786
       H     5.43536  -12.24736    1.97462
       O     5.45103  -13.06861    2.42506
      H1     4.91291  -13.75421    1.99045
       H    11.94992   -9.31905    4.47448
       O    12.26560   -9.54956    3.58920
      H1    12.53723  -10.46361    3.60907
       H    10.10944   -9.09549    0.01846
       O    10.54591   -9.97883   -0.12868
      H1     9.91712  -10.38331   -0.73735
       H    17.02090   -7.29250    3.99181
       O    16.13166   -7.78215    3.98245
      H1    16.07931   -8.08753    4.87314
       H     8.80625   -4.29829   -0.36438
       O     8.28018   -3.88488   -1.00984
      H1     8.80148   -3.15378   -1.41735
       H    12.13575  -13.56419   -0.10336
       O    11.43408  -13.78621   -0.70303
      H1    10.91320  -14.52794   -0.41513
       H    14.19431   -4.35808    4.51656
       O    14.35875   -3.36685    4.55234
      H1    15.11452   -3.29997    5.13016
       H     9.58693   -6.31345    4.75340
       O    10.25422   -5.71660    4.36346
      H1    10.67385   -6.19298    3.62111
       H     6.67664   -5.62875    8.35848
       O     7.53070   -5.74019    7.92105
      H1     7.40645   -6.32335    7.17316
       H    10.01885    0.41594    0.89765
       O    10.07012   -0.53591    0.98242
      H1    10.96122   -0.82864    1.29836
       H    13.17017   -8.91129   -0.35984
       O    13.49058   -8.13678   -0.84289
      H1    14.44591   -8.21079   -1.00327
       H     4.96503   -9.31504    5.79412
       O     5.54454  -10.04593    6.07484
      H1     6.40208   -9.90976    5.59104
       H     9.85423  -10.56945    1.98645
       O     9.73776  -10.46644    2.92444
      H1    10.63744  -10.18060    3.19934
       H     9.49186   -7.75127   -1.08750
       O     9.49053   -7.85295   -2.01688
      H1    10.21383   -8.48640   -2.17389
       H    12.46481   -8.44326   -2.28945
       O    11.92811   -8.94428   -2.95427
      H1    11.95430   -9.86694   -2.74773
       H    14.42460   -3.60873    1.00691
       O    14.02068   -2.75701    0.97709
      H1    14.15820   -2.37288    0.16599
       H    12.27238  -10.03876   -6.03303
       O    12.98552  -10.15759   -5.37848
      H1    12.82779   -9.60710   -4.59702
       H    12.72443   -2.23363    1.95500
       O    11.99219   -1.85592    2.46287
      H1    11.87245   -2.43032    3.21009
       H     8.53933   -3.60615    2.76455
       O     9.06128   -3.45610    3.58367
      H1     9.69729   -4.17551    3.69496
       H    11.16018   -6.08358    7.13921
       O    11.73333   -6.53819    6.48656
      H1    11.31068   -6.32223    5.63272
       H     4.23048   -7.61370   -2.22528
       O     3.67899   -8.32542   -2.53598
      H1     3.72971   -8.17981   -3.47327
       H    13.01808   -5.26833   -0.12298
       O    13.57827   -5.77546    0.48635
      H1    13.65891   -6.60607   -0.01867
       H     6.35064   -6.08432   -2.44269
       O     6.36549   -5.23629   -2.87825
      H1     7.21585   -4.99333   -2.56467
       H     7.30156   -2.18814    4.65283
       O     6.80882   -1.34447    4.57165
      H1     7.41410   -0.74216    4.09635
       H     8.12199  -12.23389    5.31485
       O     8.36652  -13.19995    5.34865
      H1     8.77076  -13.32552    4.47908
       H     9.67348   -4.43201   -3.50170
       O    10.12974   -3.56775   -3.38087
      H1     9.48314   -2.82003   -3.33611
       H     5.01509   -6.42344   -0.17592
       O     4.25361   -6.89467    0.18107
      H1     3.43766   -6.35360    0.01912
       H    12.07148   -6.37604    1.54043
       O    11.47986   -6.86668    2.16809
      H1    11.87113   -7.71769    2.42311
       H     9.96612   -7.52793    1.38853
       O     9.30284   -7.67673    0.74085
      H1     8.53889   -7.19329    0.99408
       H    16.61571   -7.51059   -2.31493
       O    16.11407   -7.76936   -1.50353
      H1    16.84492   -7.85226   -0.83006
       H     8.43166   -4.36394    6.35777
       O     9.07489   -3.69033    6.17014
      H1     8.94147   -3.56148    5.19331
       H    10.31904   -7.77991   -6.23674
       O    10.25616   -6.83932   -6.32086
      H1    10.18809   -6.47575   -5.47015
       H     9.73325  -12.46992    2.70667
       O     9.44539  -13.37539    2.51186
      H1     8.59818  -13.20503    2.06272
       H     7.55639   -7.81729   -1.78818
       O     6.56931   -7.59375   -1.66417
      H1     6.21024   -8.43895   -1.32196
       H    12.64965  -11.99803   -2.68089
       O    11.79578  -11.59370   -2.26651
      H1    11.52302  -12.42884   -1.82837
       H     8.05559   -5.80136   -3.91678
       O     9.02648   -5.87951   -3.91986
      H1     9.20691   -6.67465   -3.34825
       H    11.08262   -8.08887    6.29595
       O    10.91629   -9.02468    5.96750
      H1    11.55916   -9.55803    6.43371
       H     5.39718  -10.02622   -0.09319
       O     5.83541  -10.15086   -0.95695
      H1     5.11338  -10.56371   -1.46534

