180
frame 4 | Written by MDAnalysis XYZWriter (release 2.4.3)
       H    10.34945   -6.72832  -18.93544
       O    11.09249   -7.28175  -18.67329
      H1    10.65974   -8.10944  -18.86049
       H     6.50701   -6.12792  -11.44600
       O     7.18476   -5.44442  -11.63742
      H1     6.90254   -5.10952  -12.53752
       H     9.95860   -2.91318  -13.79768
       O     9.23446   -2.69232  -13.26770
      H1     8.95673   -1.89990  -13.73144
       H    11.47318   -2.46748  -15.38644
       O    11.34206   -3.36135  -15.01922
      H1    11.56902   -3.98793  -15.73451
       H     2.51747  -12.11607  -12.40827
       O     3.37300  -12.48981  -12.35267
      H1     3.24930  -13.32519  -12.82730
       H     2.35682  -12.93150  -17.64171
       O     3.30393  -12.72332  -17.70614
      H1     3.64967  -13.54093  -18.06307
       H     8.19712   -0.00313  -14.31280
       O     8.89597   -0.50586  -14.69769
      H1     9.64566    0.12176  -14.68367
       H    13.51212   -3.32422  -12.80780
       O    13.65394   -3.02189  -13.72504
      H1    12.79845   -3.34212  -14.13352
       H     3.44021   -7.59284  -18.92309
       O     4.03778   -8.21768  -18.46279
      H1     4.57495   -8.45479  -19.22451
       H    11.83507   -7.45856  -16.78213
       O    12.44832   -7.57388  -16.07602
      H1    12.78127   -8.47165  -16.18652
       H    12.90157   -1.51092  -16.63702
       O    12.62564   -1.61725  -17.59252
      H1    11.68756   -1.50324  -17.62491
       H     2.50545   -5.01092  -10.48783
       O     2.06471   -5.69878  -10.91538
      H1     1.31190   -5.90931  -10.35882
       H    -1.55835   -7.95464  -13.31384
       O    -1.35699   -6.99500  -13.14453
      H1    -0.34908   -7.06732  -13.17286
       H     3.55763   -6.51085  -16.61081
       O     3.61980   -7.30359  -16.01762
      H1     3.88524   -7.95530  -16.66929
       H     9.64578  -10.03192  -14.93520
       O     8.72392   -9.86266  -15.17178
      H1     8.80010   -8.90894  -15.23420
       H     2.00306   -6.99831  -12.13379
       O     1.75124   -7.85052  -12.62871
      H1     2.31241   -7.76323  -13.39627
       H     4.03351   -0.57899  -12.24770
       O     4.15349   -1.55480  -12.19202
      H1     4.37323   -1.72341  -13.12951
       H    10.30218   -7.23565  -14.92204
       O     9.35509   -7.18566  -15.19504
      H1     9.05430   -6.60895  -14.52127
       H     8.36365  -10.82868  -16.60584
       O     8.56670  -11.23270  -17.48874
      H1     7.68254  -11.31359  -17.98565
       H     0.77959   -7.95518  -17.04089
       O     0.55819   -8.30330  -16.16949
      H1     0.42227   -7.49283  -15.64692
       H    12.28957   -3.65332  -17.77588
       O    11.89220   -4.50014  -17.59858
      H1    12.22070   -5.14798  -18.24689
       H     9.43981   -4.51378  -15.68547
       O     8.77841   -4.31369  -16.31825
      H1     8.02870   -4.15198  -15.73408
       H    10.33168   -4.03671  -10.10279
       O    10.89851   -4.83852  -10.21391
      H1    10.62645   -5.19828  -11.07830
       H     1.06053   -9.13078  -19.20760
       O     0.67262   -8.25547  -19.15103
      H1     0.95135   -7.87488  -19.97514
       H     9.24372   -8.25704   -9.54666
       O     9.09083   -9.12432  -10.01113
      H1     8.88918   -8.84063  -10.88678
       H     1.64631   -5.48742  -18.20800
       O     2.39629   -5.20034  -17.70318
      H1     2.77119   -4.49186  -18.28909
       H     6.94242   -8.94130  -12.70374
       O     7.78449   -9.44995  -12.52848
      H1     8.04457   -9.57285  -13.43456
       H    -2.11733   -9.37657  -16.90566
       O    -2.22180   -8.40596  -16.68146
      H1    -1.37699   -8.02625  -16.42422
       H    -0.60622   -4.47611  -19.18084
       O    -0.14496   -5.35479  -19.26633
      H1    -0.89085   -6.01145  -19.36463
       H     8.91238  -12.73325  -16.59717
       O     9.06271  -13.39923  -15.86896
      H1     8.35177  -13.03326  -15.30952
       H     6.27571  -10.14748  -19.29611
       O     6.03452  -10.88909  -18.72219
      H1     6.02264  -10.44504  -17.84854
       H    13.76304   -6.55035  -15.68118
       O    14.33050   -5.78203  -15.50181
      H1    14.99398   -5.94057  -16.21318
       H    12.57684  -11.22743  -16.80880
       O    12.34616  -10.30052  -16.70043
      H1    11.91912  -10.09933  -17.55275
       H     8.93305   -6.19707  -12.20154
       O     9.82329   -5.84480  -12.49492
      H1    10.33247   -6.67788  -12.54225
       H     4.05818   -3.05914  -14.47018
       O     4.80587   -2.52602  -14.73674
      H1     4.48425   -1.94006  -15.39753
       H     8.16844   -5.92993  -18.68115
       O     8.83050   -5.66708  -19.36668
      H1     9.18880   -4.92041  -18.86318
       H     5.76990  -14.57231  -14.49009
       O     5.32548  -14.40968  -15.33719
      H1     5.29955  -13.42385  -15.13032
       H     6.65486   -3.84842  -10.51945
       O     7.10695   -3.22815   -9.86148
      H1     7.18105   -3.88715   -9.17011
       H     1.31727  -13.20905  -14.97734
       O     2.22377  -13.55855  -14.79235
      H1     2.77134  -12.85843  -15.28424
       H     6.33387   -3.64059  -14.42873
       O     7.02119   -4.29665  -14.10479
      H1     7.81347   -3.71633  -13.83979
       H     7.42914  -11.27003  -14.07168
       O     7.47290  -12.22818  -13.92561
      H1     7.35018  -12.27728  -12.93172
       H     7.74101   -6.70667  -16.62096
       O     7.23065   -6.79856  -17.46857
      H1     6.32916   -6.97445  -17.16489
       H     2.09981   -9.46068  -15.47021
       O     2.62421  -10.12596  -15.00634
      H1     1.99917  -10.36874  -14.24819
       H    10.20718  -12.11670  -13.07521
       O    10.84932  -11.40755  -13.15204
      H1    11.71731  -11.82029  -13.29412
       H     4.92915   -6.96406  -10.16729
       O     5.40800   -7.58159  -10.83916
      H1     4.79781   -7.76922  -11.52704
       H    -2.24183   -7.62801  -18.38807
       O    -1.95122   -7.47186  -19.28763
      H1    -1.04761   -7.83857  -19.23018
       H     4.93699   -8.00689  -14.31612
       O     5.62911   -8.44108  -13.74515
      H1     5.14036   -9.15812  -13.31993
       H     9.35346  -14.04427  -19.13545
       O     9.31474  -13.26469  -19.73223
      H1    10.18879  -12.90397  -19.79063
       H     7.52603   -9.25870   -9.14989
       O     6.59001   -9.44008   -8.88559
      H1     6.25465   -8.69993   -9.46491
       H     3.76489   -0.53313  -16.86102
       O     4.26565   -1.34979  -17.15724
      H1     4.48469   -1.16248  -18.06923
       H     2.75932  -11.29974  -18.59343
       O     2.46350  -10.50740  -19.08299
      H1     2.94819   -9.88989  -18.55859
       H    12.48704   -7.39733  -13.12575
       O    11.64671   -7.86502  -12.85013
      H1    11.97015   -8.33170  -12.05509
       H    13.31961   -6.58292  -19.93586
       O    13.59993   -5.82409  -19.35832
      H1    14.30920   -6.05002  -18.83044
       H     5.59790  -14.63245  -17.06144
       O     5.30675  -14.84299  -18.00707
      H1     5.95811  -15.46667  -18.28247
       H     9.29442   -1.44737  -16.57516
       O     9.80807   -1.99629  -17.18552
      H1     9.50359   -2.82860  -16.87103
       H     1.57951   -5.46523  -15.91011
       O     0.86751   -5.66618  -15.25840
      H1     0.12228   -5.17046  -15.69990
       H     4.28802  -11.92993  -16.46193
       O     4.88055  -11.62433  -15.76240
      H1     4.35745  -10.96308  -15.33622
       H     8.93564  -12.51404  -11.32995
       O     8.10243  -12.03672  -11.29195
      H1     8.32558  -11.13733  -10.98662
       H     4.62295  -11.17610  -12.34795
       O     4.98621  -10.38210  -11.87681
      H1     5.92495  -10.58920  -11.79066
       H     0.27913   -3.62712  -14.83532
       O     0.74321   -2.84674  -14.35934
      H1     0.50172   -2.05269  -14.85948

