180
frame 7 | Written by MDAnalysis XYZWriter (release 2.4.3)
       H   -16.80028    6.79472    9.45381
       O   -16.83703    6.94312   10.42726
      H1   -17.07831    7.90253   10.50840
       H   -17.48887   -1.96905    6.33697
       O   -17.07802   -1.30438    6.92402
      H1   -17.81641   -1.00685    7.50444
       H   -19.03077    0.44740   11.03973
       O   -19.54105    1.02423   10.46198
      H1   -19.07066    1.85179   10.63273
       H   -16.69848    0.44045   11.35775
       O   -17.28746    0.20899   12.06807
      H1   -17.31751    0.99600   12.62825
       H   -13.17610    2.24491    3.28888
       O   -14.02967    2.44888    3.70596
      H1   -14.22235    3.33672    3.40958
       H   -14.79288    3.53494   -0.63496
       O   -14.58798    3.41901    0.33340
      H1   -15.45440    3.31850    0.74775
       H   -13.02921    0.39785   -0.15327
       O   -13.85332    0.76512   -0.50361
      H1   -13.87986    1.63753   -0.12605
       H   -15.36505   10.13005    7.78198
       O   -16.34323    9.98722    7.65889
      H1   -16.58211   10.62715    8.36792
       H   -12.94566    3.84636    6.37604
       O   -13.75621    3.26516    6.25595
      H1   -13.58536    3.02342    5.28789
       H   -15.88220   -1.72624   -0.07746
       O   -16.25343   -1.94263   -0.97131
      H1   -17.17938   -2.09968   -0.76806
       H   -12.95559   -3.00733    1.30116
       O   -12.22585   -3.65170    1.12760
      H1   -12.17381   -4.14507    2.04092
       H   -18.12599   -1.73615    4.60995
       O   -18.19461   -2.69776    4.85158
      H1   -19.16392   -2.69700    4.62153
       H   -11.47909    2.46624   10.70235
       O   -11.05436    3.01022   10.05983
      H1   -11.05346    2.47055    9.19706
       H   -11.39765    0.74084    7.48639
       O   -11.42857    1.69921    7.73288
      H1   -12.36241    1.89097    7.40386
       H   -11.13418   -1.81127    3.83249
       O   -10.23767   -2.14337    3.87686
      H1   -10.37355   -2.94926    3.37761
       H   -16.11105    7.58511    4.94746
       O   -15.86065    7.54179    5.89036
      H1   -16.16873    8.29521    6.29262
       H   -11.29917    1.25641    0.35974
       O   -11.57888    0.43043    0.79467
      H1   -10.70831    0.06421    0.92823
       H   -18.75304   -3.69940    8.54082
       O   -19.48097   -4.32538    8.61677
      H1   -20.03358   -3.72367    9.17137
       H   -10.24353    5.48100    4.01717
       O    -9.41001    5.03520    3.98446
      H1    -9.37732    4.68618    3.09366
       H    -9.00292    1.52771    4.61146
       O    -9.87799    1.07330    4.63668
      H1    -9.73633    0.41256    5.27796
       H   -18.23764    9.72118    4.71196
       O   -18.97559    9.18859    4.31718
      H1   -18.65915    9.09581    3.39298
       H   -17.69823    0.88986   -0.66637
       O   -17.67505    0.93612    0.30704
      H1   -16.83756    0.57433    0.63965
       H   -14.69042   -2.70874    2.49336
       O   -14.72659   -2.04795    1.71432
      H1   -14.82689   -1.22708    2.19209
       H   -12.49562   -0.57837    5.23072
       O   -12.46868   -0.95926    6.11336
      H1   -11.67270   -1.38524    6.40101
       H   -12.85246    6.27590    8.93141
       O   -13.72344    5.98103    8.67358
      H1   -13.52361    5.92178    7.71230
       H   -14.75081    0.83841    1.09922
       O   -15.30299    0.73825    1.85431
      H1   -14.88192    1.40589    2.47059
       H   -17.54365    3.43973    1.81523
       O   -17.08693    3.67982    0.96847
      H1   -17.21021    2.88905    0.47936
       H   -15.00739    2.24440   10.99634
       O   -15.19682    2.30090   11.94931
      H1   -15.17359    3.23529   12.11658
       H   -15.79541    2.17564    6.81122
       O   -16.68526    1.80328    6.82187
      H1   -17.15475    2.43152    7.41495
       H   -11.51078    1.38117    2.22866
       O   -11.42900    2.24578    2.63701
      H1   -10.85786    2.09567    3.38548
       H   -17.78085   -3.82296    3.05987
       O   -17.90821   -4.31508    2.25510
      H1   -16.98840   -4.65202    2.09054
       H   -18.97909    1.23891    1.39961
       O   -19.65023    1.79813    1.86274
      H1   -19.35214    1.40747    2.70647
       H   -15.65068   -0.72707   -2.12456
       O   -15.40096    0.01187   -2.65859
      H1   -14.67279    0.32876   -2.13637
       H   -14.70219    5.03102    0.59426
       O   -14.73866    5.95692    0.84624
      H1   -13.77633    6.19103    0.70409
       H   -18.57194    0.43030    4.75529
       O   -18.18612   -0.09407    4.00590
      H1   -17.25730   -0.02618    4.15876
       H   -16.09908    6.30977    7.39793
       O   -16.22259    5.67273    8.12309
      H1   -15.35994    5.80094    8.56511
       H    -9.31073    4.07109    0.47072
       O    -9.71845    4.25891    1.37564
      H1   -10.19355    3.47456    1.72249
       H   -15.25086   10.05073    4.59779
       O   -14.32405   10.13157    4.29565
      H1   -14.20014    9.22550    3.99982
       H   -15.73099    4.48165    3.80445
       O   -14.88783    4.88328    3.57257
      H1   -15.12429    5.21381    2.69461
       H   -13.34657   -0.98335    3.08297
       O   -12.38917   -0.73382    3.24830
      H1   -12.25662   -0.45356    2.30310
       H   -17.79924    8.73170    0.93221
       O   -17.85606    9.30126    1.67938
      H1   -17.33137   10.07010    1.41734
       H   -15.44050    7.55633    2.06315
       O   -15.85276    8.04471    2.83988
      H1   -16.59890    8.44587    2.38954
       H   -10.31678    4.30069    5.78728
       O   -10.82487    4.55080    6.54595
      H1   -10.47490    5.39844    6.80122
       H   -15.78752    1.22805    8.82032
       O   -15.88199    0.50643    9.45907
      H1   -14.93095    0.27249    9.62167
       H   -19.09186    0.13115    8.92113
       O   -19.21407   -0.32259    8.09546
      H1   -19.81659   -1.02815    8.38973
       H   -13.55655   -1.00573   10.64277
       O   -13.30774   -0.52450    9.83224
      H1   -13.33303   -1.19407    9.13137
       H   -16.60657    8.26558   -1.32504
       O   -17.54162    8.25772   -1.08231
      H1   -17.64240    7.29208   -0.95173
       H   -10.72135    7.57162    4.24139
       O   -11.36512    6.89474    3.91229
      H1   -11.97029    6.79968    4.70870
       H   -14.20876    4.20575    9.57596
       O   -13.89238    3.28823    9.57414
      H1   -12.96029    3.49175    9.52614
       H   -14.39720    6.81709    5.81630
       O   -13.52954    6.30736    5.73073
      H1   -14.01233    5.62132    5.13223
       H   -15.69117   -3.30547    4.63860
       O   -15.09899   -3.74877    3.99279
      H1   -15.50179   -4.66856    4.03885
       H   -18.27332    5.73373   10.21026
       O   -19.22157    5.74092   10.47551
      H1   -19.21729    4.91630   11.04311
       H   -15.32489   -2.83186    7.58672
       O   -14.56392   -3.17904    7.03659
      H1   -14.09912   -2.42974    6.81164
       H   -17.61271    4.49482    8.35758
       O   -18.02177    3.58152    8.39939
      H1   -18.94911    3.76138    8.71823
       H   -11.28678    4.66048    0.33557
       O   -12.07814    5.10234    0.00778
      H1   -12.68502    4.33167   -0.22065
       H   -13.79430    4.12958   -2.40748
       O   -14.75544    3.97790   -2.28226
      H1   -15.06585    3.50864   -3.05806
       H   -17.04001    0.49617   -2.50602
       O   -17.86617    1.00294   -2.36597
      H1   -18.63291    0.32368   -2.41623
       H   -18.15756    6.19317    1.53646
       O   -18.75187    6.78545    1.06811
      H1   -19.60981    6.41570    1.37454
       H   -17.64620    2.56957    4.65668
       O   -17.50874    3.31717    4.01178
      H1   -18.39401    3.64385    3.84502
       H   -15.08459    0.70860    4.85526
       O   -15.44779   -0.17224    4.98343
      H1   -15.95946   -0.15095    5.74084

