180
frame 10 | Written by MDAnalysis XYZWriter (release 2.4.3)
       H    -5.48951   -7.10847  -10.37208
       O    -5.71558   -6.18729  -10.15021
      H1    -5.85008   -6.12485   -9.20127
       H    -2.27399   -3.28324  -12.45801
       O    -2.73819   -2.57493  -12.89950
      H1    -2.29402   -1.80523  -12.43899
       H    -8.83734   -8.06205  -16.86519
       O    -9.73158   -8.15400  -17.17055
      H1    -9.87171   -7.35911  -17.77556
       H    -4.33653    0.87354  -15.91197
       O    -4.18285    0.14649  -15.24671
      H1    -3.26980   -0.19002  -15.45893
       H    -8.50609    0.04187  -18.07553
       O    -8.22779   -0.13014  -17.19635
      H1    -7.93682   -1.06847  -17.25466
       H    -6.74652   -2.14607  -10.59372
       O    -7.65456   -1.81147  -10.66658
      H1    -7.76570   -2.12034   -9.74794
       H   -13.29891   -7.73682  -12.29776
       O   -12.67692   -8.29834  -12.72588
      H1   -13.03303   -8.63810  -13.53955
       H   -13.77684   -1.79463  -14.58165
       O   -13.96681   -0.85477  -14.46573
      H1   -14.91308   -0.88283  -14.55072
       H    -6.30143    1.26794  -14.78062
       O    -7.17323    1.55304  -15.08067
      H1    -7.38946    0.72771  -15.57873
       H    -6.30645   -1.66683  -13.55934
       O    -6.59825   -1.09751  -14.31339
      H1    -7.52267   -0.91031  -14.10080
       H    -6.27436   -9.79759  -14.36557
       O    -5.58058   -9.60807  -15.07810
      H1    -5.64993   -8.64745  -15.18341
       H    -6.44115   -2.13805  -15.85898
       O    -6.21782   -2.76495  -16.58190
      H1    -5.46997   -2.40374  -17.07120
       H    -9.55194   -6.95590  -14.66944
       O    -9.71911   -7.64323  -13.97921
      H1   -10.37151   -8.25269  -14.34588
       H   -11.52977   -6.73069  -10.96355
       O   -11.54022   -5.84437  -10.62173
      H1   -12.40437   -5.83079  -10.24961
       H   -15.54312   -3.71294  -17.95785
       O   -15.84255   -4.61738  -17.90397
      H1   -15.44203   -5.00133  -17.08169
       H    -9.42941   -5.84411  -12.57343
       O    -9.25460   -4.94922  -12.22978
      H1    -9.05782   -5.17012  -11.34456
       H    -9.84313   -9.94983  -17.65882
       O   -10.26279  -10.65826  -18.20095
      H1   -11.20135  -10.30135  -18.07615
       H    -7.44406   -5.16016  -12.52577
       O    -6.54351   -5.20239  -12.83684
      H1    -6.04815   -5.59279  -12.13379
       H    -3.07207   -8.35812  -17.94190
       O    -3.73520   -7.91142  -17.32683
      H1    -4.43029   -8.56226  -17.48480
       H    -8.92558  -11.63044  -17.48457
       O    -8.25107  -11.97658  -16.94829
      H1    -7.63420  -12.10570  -17.71575
       H   -11.98492   -3.06248  -11.49015
       O   -11.27754   -2.94539  -12.10309
      H1   -10.73341   -3.73416  -12.04066
       H    -8.76606   -0.27775  -10.98401
       O    -9.40095    0.45464  -10.88826
      H1   -10.11803    0.11442  -11.45906
       H   -10.01726   -1.89757  -12.77128
       O    -9.10135   -1.84591  -13.12309
      H1    -8.50884   -2.12389  -12.37740
       H    -8.43385   -9.02858  -13.54944
       O    -7.74648   -9.67689  -13.61058
      H1    -8.22875  -10.50595  -13.48746
       H   -16.39862   -0.63632  -18.23095
       O   -16.72522   -1.36279  -17.65899
      H1   -16.61289   -1.00116  -16.73541
       H    -2.26150   -1.75638  -14.18760
       O    -1.70541   -1.19027  -14.79509
      H1    -1.66089   -0.34401  -14.18452
       H    -9.36971   -4.71498  -15.63273
       O    -9.04553   -5.57928  -15.55605
      H1    -8.42646   -5.72314  -16.26222
       H    -5.49039    0.59052  -13.50933
       O    -5.15976    1.30502  -12.96856
      H1    -4.60587    1.74908  -13.64871
       H    -3.05212   -7.44875  -12.74064
       O    -3.99934   -7.11800  -12.47043
      H1    -4.46740   -7.15888  -13.37033
       H   -11.91969  -10.92283  -14.19165
       O   -11.23983  -11.07268  -14.89001
      H1   -10.41705  -11.18120  -14.36962
       H    -3.54326   -3.85181  -15.24538
       O    -4.27705   -4.39747  -15.54913
      H1    -4.86194   -3.70276  -15.84325
       H    -0.80532   -4.79849  -17.04323
       O     0.08173   -4.99684  -17.32898
      H1     0.03047   -5.18674  -18.27947
       H    -8.37467    3.35924  -18.95239
       O    -8.21448    3.53384  -19.89342
      H1    -7.93575    4.45328  -19.90802
       H    -8.86801    1.63001  -12.44437
       O    -9.17431    2.11253  -13.21955
      H1    -8.41380    1.96133  -13.86322
       H   -12.65865    0.10545  -15.25046
       O   -11.87809    0.31823  -15.79204
      H1   -12.12338   -0.11786  -16.58731
       H   -15.38979   -3.52102  -12.90218
       O   -15.50197   -4.32295  -13.43721
      H1   -14.72908   -4.20024  -14.05444
       H    -6.82851   -9.43634  -18.36229
       O    -6.67455   -8.96384  -17.51303
      H1    -6.67159   -9.73917  -16.94380
       H   -13.40534   -8.57960  -17.54936
       O   -13.03942   -9.22425  -18.16744
      H1   -13.77096   -9.86860  -18.31102
       H    -8.32739   -3.26344  -19.80961
       O    -8.63497   -3.40758  -18.90676
      H1    -8.08389   -4.07967  -18.56783
       H    -6.69907    3.87230  -17.20347
       O    -5.91883    4.40540  -16.86340
      H1    -5.75672    4.95703  -17.62540
       H    -3.75915  -11.53179  -16.78851
       O    -4.67936  -11.19310  -17.06930
      H1    -4.90095  -10.62056  -16.31790
       H   -11.30206    0.05105  -13.86504
       O   -11.24735    0.34242  -12.90482
      H1   -10.67156    1.20596  -13.01867
       H    -7.74053    2.30118  -16.65336
       O    -8.19494    2.79289  -17.36526
      H1    -8.91360    3.16549  -16.84345
       H   -12.52865   -3.40782  -13.44512
       O   -13.14622   -3.45476  -14.17146
      H1   -12.79160   -3.98281  -14.85667
       H   -16.18758   -5.76005  -15.07481
       O   -15.42150   -6.07720  -15.50323
      H1   -15.02432   -6.43544  -14.69993
       H    -9.97278   -2.05380  -15.96157
       O    -9.88802   -2.95657  -15.72635
      H1    -9.35399   -3.03923  -14.93162
       H    -3.31694   -5.08078  -17.59982
       O    -2.68883   -4.38418  -17.92683
      H1    -2.76684   -4.70443  -18.87222
       H    -1.74894  -10.58899  -17.73873
       O    -1.78585   -9.73502  -18.22453
      H1    -0.87660   -9.53538  -18.47189
       H    -4.50750   -2.67839  -12.42845
       O    -5.46170   -2.65978  -12.29218
      H1    -5.85050   -3.56424  -12.44140
       H   -11.65191   -5.19864  -16.86888
       O   -12.15408   -5.21808  -16.01046
      H1   -11.89133   -6.14183  -15.86314
       H    -2.22068    3.50284  -16.16991
       O    -2.01041    2.59596  -16.24507
      H1    -2.67206    2.42580  -17.00970
       H   -12.40610    2.51368  -20.21548
       O   -12.37418    3.37317  -19.63891
      H1   -12.17425    3.01468  -18.79667
       H    -5.76264   -3.32315  -18.87682
       O    -4.98195   -2.77377  -19.03668
      H1    -4.32928   -3.37970  -18.59082
       H   -11.80659    3.62154  -16.21342
       O   -12.15471    3.01896  -16.88862
      H1   -12.01633    2.14820  -16.47921
       H    -1.30293   -9.66660  -15.54050
       O    -1.99084   -9.06054  -15.22508
      H1    -2.45095   -8.77705  -16.06270
       H   -11.25719   -6.39458  -19.08778
       O   -10.51227   -6.05665  -18.52795
      H1    -9.85925   -5.76065  -19.17332
       H    -6.49525   -5.75235  -16.73551
       O    -7.05468   -6.17161  -17.48204
      H1    -6.74513   -7.05213  -17.54813
       H   -12.35919   -9.06472  -16.07595
       O   -12.17259   -8.25157  -15.65747
      H1   -11.40806   -7.98437  -16.15240
       H    -4.88889    2.95342  -17.38949
       O    -4.58773    2.08481  -17.76793
      H1    -4.84029    2.17329  -18.68224
       H    -4.88455   -6.15156  -15.11290
       O    -5.49979   -6.84903  -14.80151
      H1    -6.22666   -6.36890  -14.28795

