180
frame 6 | Written by MDAnalysis XYZWriter (release 2.4.3)
       H    16.54848    4.06348    4.92664
       O    15.85693    4.79589    4.82393
      H1    15.05141    4.31338    4.91953
       H    16.43059   -0.87933   11.39272
       O    16.70111   -0.65720   10.49360
      H1    17.41384   -1.27363   10.31402
       H    12.08526    4.15394    8.97863
       O    12.38613    3.76638    8.16660
      H1    12.77763    4.52302    7.64461
       H    16.53675    2.09155    9.74659
       O    17.18956    2.09168   10.43159
      H1    17.48790    1.16195   10.42706
       H    12.72915    1.77694   11.01691
       O    12.85702    1.37577   10.11146
      H1    13.05802    0.46615   10.33326
       H    16.69880    7.61074    5.94113
       O    15.83197    7.26344    5.78355
      H1    16.03876    6.31960    5.51846
       H    13.54289    6.24935   10.77052
       O    14.37311    5.75656   10.62660
      H1    14.04095    4.92276   10.34792
       H    15.68172   -0.16794    9.13473
       O    15.33748   -0.14578    8.19387
      H1    15.13955    0.83028    8.15981
       H    13.84678    2.12689   -0.42641
       O    14.18750    1.46755    0.24164
      H1    15.08120    1.52665   -0.09476
       H    15.78393   -0.90474    4.29210
       O    15.46111   -1.83390    4.47190
      H1    15.85563   -2.30445    3.65730
       H    16.11394    7.92722   -0.18453
       O    15.91798    7.02273    0.12819
      H1    16.81412    6.65327    0.30524
       H    17.44323    6.54356    2.27611
       O    18.19183    6.03202    1.91780
      H1    18.21810    5.24470    2.50856
       H    14.10156    2.81716    8.88487
       O    15.05180    2.97346    8.67307
      H1    15.04212    3.56408    7.95436
       H    16.36946    0.63271   -1.61067
       O    15.92962    0.11235   -2.33169
      H1    15.23291    0.70825   -2.60783
       H    15.14043    6.62507   11.93968
       O    15.86120    6.86844   12.63214
      H1    15.75970    6.08701   13.19926
       H    14.33640   -2.95410    1.81409
       O    14.93669   -2.28270    1.52638
      H1    14.59859   -2.08046    0.64772
       H    11.42093   -0.94982    5.68999
       O    10.56879   -0.61237    5.96215
      H1     9.99065   -0.53599    5.15880
       H    12.42602   -2.80324    5.27643
       O    11.87046   -3.27191    4.64285
      H1    12.56731   -3.80693    4.14150
       H    12.22105   -0.96304   11.46059
       O    13.17146   -0.86844   11.54094
      H1    13.26330   -0.58517   12.44623
       H    16.63079   -2.80073    1.03969
       O    17.60233   -2.97384    1.31693
      H1    18.16028   -2.67392    0.51999
       H    11.34919    5.30120   11.17592
       O    11.20221    4.76798   10.37258
      H1    10.73995    3.99587   10.74493
       H    19.17122    6.84851    4.57761
       O    18.57559    6.56290    5.32131
      H1    18.42255    5.58260    5.27279
       H    11.95249    6.70715    3.82892
       O    12.87264    6.80308    4.12781
      H1    13.17231    7.21200    3.32779
       H    15.06160    2.62056    1.52281
       O    15.68525    3.00965    2.15258
      H1    15.96721    2.33692    2.80885
       H    18.11991   -0.55503   14.24864
       O    18.29986    0.38498   14.22029
      H1    19.30153    0.41564   13.97641
       H    15.25893    9.08572    2.02562
       O    14.55816    9.78941    1.83819
      H1    14.06900    9.31501    1.11184
       H    12.26166    2.44135   13.34473
       O    12.00736    2.26260   12.45525
      H1    11.13072    2.55971   12.37035
       H    10.96499    3.93553    5.07831
       O    11.33121    4.00745    4.14669
      H1    12.02368    3.33486    4.15538
       H    16.09536   -4.00568   10.67901
       O    16.37966   -4.21979    9.80205
      H1    16.66920   -5.10627    9.89917
       H    10.15607    5.26284    7.28621
       O     9.93046    4.66090    6.49002
      H1    10.37883    3.85027    6.74295
       H    17.57543    3.44393    7.01904
       O    17.67257    2.98898    6.18095
      H1    18.44492    2.41210    6.43330
       H    14.50371    4.43842    2.46509
       O    13.63354    4.89374    2.49912
      H1    13.63121    5.32862    3.33224
       H    13.41840    9.53273    5.19351
       O    14.32187    9.70206    5.64097
      H1    14.86379    8.84611    5.49169
       H    16.82929    3.92930   -2.48406
       O    17.55789    3.41659   -2.08102
      H1    17.99567    3.17764   -2.86338
       H    18.27325   -2.76807    3.11082
       O    18.74176   -2.53654    3.92240
      H1    19.11901   -1.65782    3.71279
       H    16.33624    1.83179   12.03105
       O    15.90006    1.65988   12.93055
      H1    16.66326    1.28453   13.39095
       H    18.74705    3.13378    3.30751
       O    18.88535    3.90773    3.91134
      H1    18.63903    3.45205    4.74693
       H    14.62210    5.90036    0.17317
       O    13.92260    5.32962   -0.12810
      H1    13.52913    5.32197    0.78604
       H    10.81721    1.23171    6.33066
       O    11.15855    2.12501    6.32478
      H1    11.75806    2.18129    7.06005
       H    19.50381    1.78420    1.50566
       O    18.91957    1.82532    2.31461
      H1    19.38435    1.13499    2.80904
       H    10.87318    0.85222    9.71576
       O     9.90028    0.97795    9.66423
      H1     9.55002    0.11761    9.82376
       H    11.30470    2.65200    2.41110
       O    12.06694    2.78013    1.77510
      H1    12.56006    3.58232    2.18307
       H    14.37520    6.22088    6.68017
       O    13.59431    5.67067    6.71689
      H1    13.35654    5.84308    5.80630
       H    17.61604   -1.36603    5.61167
       O    17.45640   -0.61048    6.20000
      H1    16.69260   -0.83648    6.73765
       H    17.59620   -3.09877    9.78094
       O    18.40218   -2.47895    9.69162
      H1    18.67541   -2.39219   10.59745
       H    13.98074   -1.61147    5.43422
       O    13.20571   -1.46726    5.93931
      H1    13.41782   -1.80281    6.82920
       H    12.68210    1.39246    5.15095
       O    13.23585    1.68261    4.40005
      H1    12.86302    1.20061    3.65788
       H    17.14846   -3.49772   12.88067
       O    16.67396   -2.66021   12.55960
      H1    15.73510   -3.07370   12.67788
       H    18.28667    7.39379    8.40593
       O    18.65757    8.03216    7.75781
      H1    18.82924    7.39494    7.03716
       H    18.14050    5.17288   -1.96215
       O    18.64832    5.97494   -2.06414
      H1    19.29970    5.84163   -1.34961
       H    19.33102    2.61042   12.36124
       O    18.67438    3.18123   12.77105
      H1    17.99082    3.18958   12.08089
       H    17.83623    5.18271    8.55407
       O    18.25752    4.34992    8.37215
      H1    18.04748    3.80789    9.11089
       H    12.86204   -0.28621    1.42283
       O    12.94967   -0.25808    2.35564
      H1    13.86997   -0.47889    2.40955
       H    17.13010    6.61306   10.57313
       O    17.23510    6.59225    9.56699
      H1    16.30633    6.23984    9.34087
       H    15.60535    3.46177   13.96716
       O    15.50820    4.39785   14.12098
      H1    14.61657    4.54449   14.50344
       H    14.94347    1.24049    4.19338
       O    15.88031    1.07582    4.18879
      H1    16.04729    0.83343    5.10315
       H    16.40478    8.10475    4.07715
       O    16.72187    8.21320    3.18945
      H1    17.67155    8.45134    3.32697
       H    14.29755   -3.67388    8.18694
       O    13.68228   -2.89193    8.26480
      H1    14.09226   -2.32558    8.88186
       H    19.33714    8.14392   12.33734
       O    19.27026    9.12690   12.63354
      H1    19.80325    9.52588   11.91597
       H    17.38483    1.80167    0.67393
       O    17.00762    1.51849   -0.18260
      H1    17.16469    2.29834   -0.75534

