180
frame 7 | Written by MDAnalysis XYZWriter (release 2.4.3)
       H   -17.48615   -9.85291   16.56411
       O   -16.98434   -9.53814   15.70452
      H1   -16.34600  -10.23211   15.64995
       H   -17.48887   -1.96905    6.33697
       O   -17.07802   -1.30438    6.92402
      H1   -17.81641   -1.00685    7.50444
       H   -15.55353   -7.40694    2.12639
       O   -16.07845   -6.61325    1.98714
      H1   -16.96851   -6.93383    2.14789
       H   -19.03077    0.44740   11.03973
       O   -19.54105    1.02423   10.46198
      H1   -19.07066    1.85179   10.63273
       H   -15.20221  -11.68164   10.56987
       O   -14.64103  -11.36433    9.86945
      H1   -13.96488  -10.90735   10.33795
       H   -16.69848    0.44045   11.35775
       O   -17.28746    0.20899   12.06807
      H1   -17.31751    0.99600   12.62825
       H   -10.92426   -2.13301    8.45869
       O   -10.52052   -2.45891    7.59564
      H1   -10.08644   -3.28810    7.73898
       H   -19.23499   -6.29574   17.14328
       O   -18.99283   -7.20987   16.90450
      H1   -18.11344   -7.00531   16.65316
       H   -12.60025  -10.93247   13.17872
       O   -12.92746  -10.31236   12.44497
      H1   -13.79293  -10.24055   12.72220
       H   -10.28877   -0.76728   10.70202
       O   -10.62006   -0.65008    9.82945
      H1   -11.41868   -0.15543   10.05924
       H   -15.10411   -7.35561    4.64969
       O   -15.13944   -6.43110    5.05037
      H1   -15.74337   -6.50799    5.85292
       H   -18.12599   -1.73615    4.60995
       O   -18.19461   -2.69776    4.85158
      H1   -19.16392   -2.69700    4.62153
       H   -10.69480   -6.15258    7.45999
       O   -11.29616   -6.74292    7.89745
      H1   -12.15355   -6.43301    7.52452
       H   -19.48597   -6.68122    7.52922
       O   -19.58947   -7.55454    7.11344
      H1   -19.77117   -7.27159    6.23649
       H   -18.75304   -3.69940    8.54082
       O   -19.48097   -4.32538    8.61677
      H1   -20.03358   -3.72367    9.17137
       H   -18.87889   -5.40157   10.54374
       O   -18.11321   -5.26741   11.08059
      H1   -18.12776   -5.99376   11.73761
       H   -17.18493  -10.09530    7.84077
       O   -17.67851  -10.88905    7.58824
      H1   -18.59700  -10.69773    7.59600
       H   -12.31707   -6.61690   11.05562
       O   -11.43551   -6.72776   10.64208
      H1   -11.56832   -6.31296    9.75775
       H   -19.46303   -9.28518   11.26782
       O   -19.06382  -10.11060   10.78724
      H1   -19.17155  -10.79878   11.45731
       H   -15.56575  -11.04299   13.68202
       O   -15.87555  -11.25538   12.80074
      H1   -16.82372  -11.04527   12.89505
       H   -14.69042   -2.70874    2.49336
       O   -14.72659   -2.04795    1.71432
      H1   -14.82689   -1.22708    2.19209
       H   -16.22436   -4.59669   16.03281
       O   -16.60695   -3.88569   15.53622
      H1   -16.22270   -3.13114   16.01954
       H   -12.49562   -0.57837    5.23072
       O   -12.46868   -0.95926    6.11336
      H1   -11.67270   -1.38524    6.40101
       H   -16.23569   -9.40732    5.00925
       O   -15.86177   -8.91079    4.23618
      H1   -15.19036   -9.50978    3.94863
       H   -17.11141   -9.40211   10.04678
       O   -16.31447   -9.16846    9.48718
      H1   -15.90416  -10.06796    9.51267
       H   -16.45672   -7.04409    8.25141
       O   -16.13060   -6.43486    7.55581
      H1   -16.17436   -5.52853    7.96867
       H   -18.39681   -7.42183   13.02835
       O   -17.67534   -6.85805   13.40527
      H1   -16.91038   -7.16944   12.86089
       H   -15.00739    2.24440   10.99634
       O   -15.19682    2.30090   11.94931
      H1   -15.17359    3.23529   12.11658
       H   -11.15870   -7.97453   13.51131
       O   -11.75433   -7.44681   14.13108
      H1   -11.05889   -7.25118   14.86314
       H   -15.79541    2.17564    6.81122
       O   -16.68526    1.80328    6.82187
      H1   -17.15475    2.43152    7.41495
       H   -13.79985   -8.31121    6.11863
       O   -14.20820   -8.30149    6.98764
      H1   -14.52301   -7.34945    7.08626
       H   -17.78085   -3.82296    3.05987
       O   -17.90821   -4.31508    2.25510
      H1   -16.98840   -4.65202    2.09054
       H   -15.80027   -3.75383   13.98854
       O   -15.01848   -3.72271   13.42509
      H1   -14.47478   -4.31776   14.02866
       H   -18.57194    0.43030    4.75529
       O   -18.18612   -0.09407    4.00590
      H1   -17.25730   -0.02618    4.15876
       H   -13.20063   -6.28799   14.53232
       O   -13.51632   -5.52755   15.10265
      H1   -14.34396   -5.93198   15.30484
       H   -10.73793   -8.18783   11.49744
       O   -10.39056   -8.83827   12.13955
      H1   -11.12309   -9.44434   12.36409
       H   -13.49663   -7.01198    3.16646
       O   -13.14541   -6.50602    2.43075
      H1   -13.94993   -6.27302    1.95091
       H   -13.26286   -4.32891    6.12956
       O   -12.88855   -5.11313    5.72989
      H1   -13.64835   -5.64752    5.42779
       H    -8.68564   -6.10053    8.44862
       O    -8.52118   -6.73345    9.18313
      H1    -9.36198   -6.66497    9.60378
       H   -12.14714   -5.29156    3.20828
       O   -11.61812   -4.58547    3.63028
      H1   -12.05557   -4.55959    4.49032
       H   -19.13855   -8.02691    3.61883
       O   -18.39460   -8.24504    3.03161
      H1   -17.78016   -8.61237    3.73315
       H   -17.89504   -2.00323   11.77351
       O   -18.66946   -2.55110   11.57299
      H1   -18.23792   -3.40198   11.29581
       H   -15.78752    1.22805    8.82032
       O   -15.88199    0.50643    9.45907
      H1   -14.93095    0.27249    9.62167
       H   -11.22747   -3.81689   10.50001
       O   -12.18587   -3.84640   10.52160
      H1   -12.38903   -3.08381   11.00635
       H   -17.23217   -1.05370   13.43501
       O   -16.84744   -1.37107   14.28096
      H1   -16.18172   -0.69421   14.38178
       H   -19.09186    0.13115    8.92113
       O   -19.21407   -0.32259    8.09546
      H1   -19.81659   -1.02815    8.38973
       H   -13.55655   -1.00573   10.64277
       O   -13.30774   -0.52450    9.83224
      H1   -13.33303   -1.19407    9.13137
       H   -14.06091   -0.02173   13.81807
       O   -14.59304    0.56639   14.36374
      H1   -14.79097    1.38370   13.85580
       H   -11.67566   -8.97378    5.68347
       O   -12.05557   -8.72290    4.81816
      H1   -12.64391   -9.45102    4.59233
       H   -18.77154  -10.85000   14.05152
       O   -18.33226  -10.25687   13.46972
      H1   -17.69459   -9.83540   14.08625
       H   -15.69117   -3.30547    4.63860
       O   -15.09899   -3.74877    3.99279
      H1   -15.50179   -4.66856    4.03885
       H   -11.18115   -8.80969    7.89666
       O   -11.11329   -9.57475    7.34478
      H1   -10.22820   -9.86412    7.61534
       H   -14.92699   -4.34073   11.86793
       O   -14.67940   -4.82937   11.04134
      H1   -13.77285   -4.62772   10.86360
       H   -15.32489   -2.83186    7.58672
       O   -14.56392   -3.17904    7.03659
      H1   -14.09912   -2.42974    6.81164
       H   -15.77354   -4.17811    9.51704
       O   -16.52357   -4.28596    8.89641
      H1   -17.04998   -4.97521    9.28525
       H   -12.88483   -1.20746   12.89955
       O   -13.54805   -1.71352   12.40257
      H1   -13.95668   -2.25954   13.09228
       H   -16.42308   -6.73875   14.61063
       O   -15.84725   -6.71099   15.40176
      H1   -16.06055   -7.55313   15.85978
       H   -18.73501   -3.34977   15.79415
       O   -19.15590   -2.73642   15.20483
      H1   -18.38322   -2.32643   14.80429
       H   -15.64773   -6.54872   11.58748
       O   -15.76971   -7.46915   11.80585
      H1   -15.95285   -7.83914   10.90514
       H   -15.08459    0.70860    4.85526
       O   -15.44779   -0.17224    4.98343
      H1   -15.95946   -0.15095    5.74084

