180
frame 0 | Written by MDAnalysis XYZWriter (release 2.4.3)
       H    16.15795    9.83342   -6.39106
       O    16.11685   10.08798   -7.34551
      H1    15.29581    9.63068   -7.66311
       H    16.17892   11.89131  -14.03822
       O    16.41896   12.68546  -13.46965
      H1    15.81228   12.71773  -12.71201
       H    14.05619    3.67359   -1.47564
       O    14.39693    3.52567   -0.58958
      H1    15.31056    3.86087   -0.76009
       H    13.78580    3.22504   -8.45480
       O    14.43299    3.55745   -9.13159
      H1    15.29240    3.05217   -9.12956
       H    15.95340   10.15201   -0.75996
       O    16.77938    9.66372   -0.62392
      H1    16.77903    9.76381    0.34651
       H    12.98347    4.00717   -4.94550
       O    12.73884    3.07115   -5.03646
      H1    12.57016    2.93946   -5.98347
       H    12.66917    6.83413   -4.65964
       O    12.21371    7.62525   -4.84495
      H1    12.78562    8.36080   -4.62666
       H    17.40719    7.90823   -0.72917
       O    17.50388    7.09615   -1.19642
      H1    17.50811    6.47243   -0.44907
       H    17.38589    6.25538   -8.06879
       O    16.86070    6.20244   -8.90314
      H1    16.41819    7.02573   -8.86481
       H    16.43661    8.82536   -4.22695
       O    16.00010    9.57292   -4.64867
      H1    15.13963    9.72387   -4.19244
       H    13.81905    5.64193   -2.44765
       O    13.50672    4.83875   -2.84988
      H1    12.52834    4.88819   -2.64282
       H    16.94953    9.54122  -14.31428
       O    16.28655   10.00997  -14.93268
      H1    16.90772   10.25184  -15.64941
       H    15.82703    3.06357   -4.96186
       O    15.46722    2.35193   -5.54240
      H1    14.51112    2.46414   -5.29768
       H    10.49721    7.80423   -3.97054
       O     9.74052    8.16792   -3.51683
      H1     9.18409    7.33821   -3.59095
       H    17.49969    2.23141  -11.44430
       O    16.67481    2.57600  -11.09703
      H1    16.98888    2.88660  -10.20589
       H    13.95775    8.67394  -13.61291
       O    13.79595    8.77397  -14.58391
      H1    14.47843    9.46390  -14.73095
       H    12.81509   10.79240   -4.04615
       O    13.36045   10.12498   -3.51951
      H1    12.87414   10.27306   -2.71347
       H    14.54237    5.37997  -12.91003
       O    14.03131    6.20554  -12.95048
      H1    13.28065    5.90939  -13.51860
       H    17.61056    5.40801  -12.56742
       O    18.49336    5.67555  -12.26219
      H1    18.95631    5.72267  -13.11447
       H    19.36756    4.91122   -6.61391
       O    18.65249    5.47601   -6.94785
      H1    18.72537    6.02470   -6.12613
       H    15.01419    4.13162   -6.10459
       O    14.65672    4.97971   -6.33048
      H1    14.76033    4.95017   -7.26019
       H    14.44464   12.09924   -0.68477
       O    14.67691   11.60735   -1.46831
      H1    14.07008   10.84921   -1.36760
       H    19.71286   15.29063   -3.48527
       O    18.87800   15.74694   -3.75499
      H1    18.51814   15.93679   -2.87790
       H    11.68784    7.70753   -6.85603
       O    11.31480    8.22530   -7.57801
      H1    10.69211    7.52622   -7.86064
       H    18.73575   11.04839   -3.87884
       O    19.41212   10.48407   -4.28677
      H1    19.36068   10.83371   -5.18728
       H    16.33957   11.42318   -3.96828
       O    16.60452   12.26635   -3.51679
      H1    15.97056   12.30849   -2.73371
       H    16.34848    5.46002   -3.99065
       O    16.11938    4.54188   -3.84725
      H1    15.18835    4.64280   -3.60760
       H    15.87582    1.14772   -4.64061
       O    16.26269    0.50463   -4.01720
      H1    17.19510    0.62804   -4.19703
       H    16.34702   13.10876   -6.88767
       O    17.27391   12.79007   -6.83451
      H1    17.66101   13.68997   -6.54417
       H    15.06145   15.51753  -11.56230
       O    14.57479   14.71314  -11.47935
      H1    14.39869   14.80839  -10.49222
       H    13.28412    6.00687  -11.44111
       O    12.83961    5.84408  -10.54949
      H1    13.50971    5.22426  -10.16539
       H    18.50110   13.99256   -1.09295
       O    18.06353   14.81469   -0.81814
      H1    18.32824   14.81911    0.10714
       H    15.36990    7.30679   -2.01691
       O    14.50467    7.05503   -1.64136
      H1    14.74806    6.63570   -0.77389
       H    17.96776   15.35600  -13.76155
       O    18.53326   15.74412  -13.07696
      H1    18.37377   15.19933  -12.30635
       H    18.76353   14.80865   -9.96444
       O    17.90038   15.04166  -10.33179
      H1    17.53986   14.13190  -10.20793
       H    18.72733   11.99903   -7.01362
       O    19.53641   11.44301   -6.95715
      H1    19.34997   10.58775   -7.38886
       H    17.67131   12.06673  -12.31769
       O    18.36029   11.79038  -11.66065
      H1    17.98397   10.89919  -11.51639
       H    19.78836    8.41140  -11.16102
       O    19.62535    8.93259  -11.94055
      H1    18.64715    8.76036  -11.95530
       H    14.16556   12.56231   -9.44264
       O    13.61345   11.89567   -9.83168
      H1    12.89372   12.40089  -10.24483
       H    17.55402   15.70367   -5.12793
       O    17.09540   15.80820   -5.97253
      H1    16.22058   15.48638   -5.69083
       H    19.79513   11.03378   -1.28170
       O    18.94469   11.47652   -1.29654
      H1    18.23028   10.75768   -1.13839
       H    16.23600    9.10951  -12.31764
       O    17.07163    8.68776  -12.51129
      H1    16.94248    7.74787  -12.49344
       H    19.37043    1.12702   -7.60643
       O    18.48691    0.96240   -7.16147
      H1    18.63633    1.40263   -6.33210
       H    19.09407    2.16671   -3.91990
       O    18.76189    1.47428   -4.52636
      H1    19.52806    0.83806   -4.42764
       H    12.11789    9.19049   -0.74091
       O    13.08531    9.27279   -0.58506
      H1    13.42793    8.49261   -1.04363
       H    15.53595   14.05138   -4.64147
       O    15.08957   14.84288   -4.39365
      H1    14.32748   14.90033   -5.00804
       H    15.81234   14.74618   -1.45163
       O    14.85300   15.06628   -1.65616
      H1    14.83073   14.69073   -2.54082
       H    13.82621   14.04200   -7.47141
       O    14.77896   13.96130   -7.45634
      H1    15.22060   14.72561   -7.86388
       H    13.91165    9.41309   -9.07402
       O    13.90543    8.94818   -8.20543
      H1    13.00356    8.60127   -8.27695
       H    17.69997    9.41084   -7.87635
       O    18.51707    8.88637   -7.88741
      H1    18.58591    8.64713   -6.93788
       H    10.60241   10.25591   -7.54369
       O     9.73089   10.69020   -7.69380
      H1     9.98120   11.58404   -7.77192
       H    13.18867   11.35329   -6.79015
       O    12.37807   11.00478   -6.42444
      H1    12.30671   10.06224   -6.70101
       H    13.67666   10.43109  -12.32500
       O    14.63809   10.48971  -12.30047
      H1    14.74677   11.09249  -11.51997
       H    17.62183   12.12320  -10.29465
       O    16.86856   12.59303   -9.75479
      H1    17.05511   12.46365   -8.83282
       H    17.27113    3.83708   -1.99974
       O    17.13554    3.76212   -1.02000
      H1    17.99068    4.17507   -0.69255
       H    17.38049    4.07206   -7.91492
       O    17.24572    3.23766   -8.31564
      H1    17.62498    2.62828   -7.61135
       H    19.62828    4.20777    0.72491
       O    19.22853    4.93949    0.25712
      H1    18.57412    5.17310    0.93648
       H    16.05785    4.14059  -13.89554
       O    16.09074    4.45375  -12.98859
      H1    16.24298    3.64335  -12.40026
       H    18.11581    7.50553   -4.14660
       O    17.27716    7.14982   -3.92374
      H1    17.39658    6.94740   -2.95494
       H    16.75805   15.92604   -9.25091
       O    15.98148   16.06458   -8.60782
      H1    16.36118   16.82917   -8.11847

