180
frame 0 | Written by MDAnalysis XYZWriter (release 2.4.3)
       H    13.51434  -16.23820  -18.14380
       O    14.49243  -16.05042  -18.31111
      H1    14.93705  -16.87183  -18.10214
       H    18.43635   -6.68989  -17.20460
       O    17.65497   -7.10283  -16.84604
      H1    17.55264   -7.70459  -17.65884
       H    14.61272   -9.64140  -12.84084
       O    14.58104   -9.28618  -13.71301
      H1    15.11752   -8.48547  -13.68149
       H    13.08062    0.01812  -19.30508
       O    13.06566    0.42481  -18.40718
      H1    13.98819    0.74551  -18.25451
       H    11.11356   -7.88563  -17.49389
       O    11.86300   -8.41749  -17.75370
      H1    12.00264   -8.20494  -18.67965
       H    19.48289   -6.27084  -12.71945
       O    19.08802   -6.15568  -11.84542
      H1    18.65480   -5.25941  -11.87432
       H    10.21465   -2.65437  -13.87217
       O    10.01174   -1.79284  -13.46988
      H1     9.41774   -1.29764  -14.10014
       H    12.88967   -1.63959  -13.85281
       O    13.13300   -2.53661  -13.42306
      H1    12.58143   -3.13149  -13.93182
       H    14.45735   -1.57555  -10.91453
       O    14.40083   -0.57225  -10.81086
      H1    14.56360   -0.48198   -9.86687
       H    16.67160  -16.35801  -15.25706
       O    15.90251  -16.95864  -15.03462
      H1    16.15966  -17.74078  -14.54725
       H    17.15288   -0.71276  -10.80531
       O    17.92911   -1.23886  -11.23810
      H1    18.50911   -1.40497  -10.42885
       H    12.48409  -13.42821  -14.81473
       O    12.98459  -14.14392  -15.22496
      H1    13.63531  -14.24803  -14.44711
       H    11.83254   -9.19490   -9.41426
       O    12.29097   -9.78748  -10.05299
      H1    11.66572  -10.52179  -10.09701
       H    14.20994   -3.77539  -10.84201
       O    14.68190   -3.83396  -11.71198
      H1    14.09847   -3.32850  -12.29920
       H    18.67197  -10.43350  -12.87537
       O    18.29107  -11.23590  -12.50558
      H1    18.36473  -11.01200  -11.57353
       H    13.16996   -9.35781  -16.46398
       O    13.38616  -10.28961  -16.31500
      H1    13.99509  -10.13936  -15.56321
       H    18.83416  -11.07292  -17.00014
       O    18.23564  -11.68540  -17.47810
      H1    17.33350  -11.22658  -17.44872
       H    13.02334   -1.33149  -17.44229
       O    12.53410   -2.15228  -17.17465
      H1    11.58375   -2.01845  -17.29709
       H     9.32454   -9.26098  -14.01563
       O     8.96530   -8.58577  -14.58751
      H1     9.55510   -7.86742  -14.40340
       H    11.23407   -4.72335  -15.07224
       O    10.48196   -4.50426  -14.46199
      H1    10.47845   -5.26299  -13.87183
       H    15.88195   -3.95565  -15.82862
       O    15.81301   -3.41269  -16.62737
      H1    16.77326   -3.15017  -16.73907
       H     8.49756   -9.04255  -16.04187
       O     8.37653   -9.08317  -17.04678
      H1     7.42738   -9.12468  -17.18526
       H    18.47264   -1.27136  -13.54940
       O    18.38956   -2.01880  -14.18163
      H1    17.98541   -2.68970  -13.54045
       H    15.62034  -14.03796  -14.12785
       O    15.34599  -14.68439  -13.47047
      H1    15.66958  -15.46565  -13.92039
       H    16.37111   -6.20818   -9.30748
       O    16.75470   -6.08152   -8.42689
      H1    17.50358   -5.56469   -8.60217
       H    18.87226   -4.18153   -8.01250
       O    18.76754   -4.36596   -8.99654
      H1    19.36089   -5.14387   -9.04383
       H    17.71135   -2.91610  -11.49583
       O    17.59494   -3.70035  -12.08579
      H1    16.64955   -3.72503  -12.25080
       H    15.39299   -3.43204   -9.07745
       O    16.27490   -3.00211   -9.09925
      H1    16.93437   -3.68808   -9.29392
       H    12.95379   -3.82468  -15.84958
       O    12.84348   -4.73146  -15.50882
      H1    13.05288   -5.25233  -16.28262
       H     9.08802   -4.47468  -15.80715
       O     8.93152   -4.15552  -16.75229
      H1     7.93362   -4.35016  -16.74914
       H    15.57590    2.54436  -17.10014
       O    16.13204    1.69931  -17.05630
      H1    15.72907    1.03650  -16.53102
       H    12.93307   -2.83978  -20.12160
       O    12.48978   -3.63878  -19.65883
      H1    12.73349   -3.42967  -18.72502
       H    16.51228   -6.36779  -13.49761
       O    16.71816   -7.04483  -12.81670
      H1    17.54577   -6.68487  -12.42710
       H    15.11074  -15.85848  -10.73874
       O    15.08678  -14.87947  -10.71199
      H1    15.02927  -14.61049  -11.69791
       H    17.82808   -0.15913  -18.34389
       O    17.12595    0.17846  -19.01116
      H1    16.81333    0.94102  -18.49615
       H    10.48365  -12.07939  -15.81441
       O    10.57968  -12.64389  -14.99772
      H1     9.89766  -12.22132  -14.40176
       H    14.59690   -5.74954  -14.96754
       O    15.54416   -5.69729  -14.85161
      H1    15.88031   -6.33125  -15.51230
       H    15.70132  -10.71800  -14.19346
       O    16.39765  -10.86145  -14.82721
      H1    17.03522  -11.30252  -14.22303
       H    10.84847  -10.39496  -17.48917
       O    10.12484  -11.05639  -17.26985
      H1     9.42228  -10.42510  -17.07440
       H     9.75066   -6.17199  -11.90093
       O    10.61156   -5.92836  -12.23786
      H1    11.27613   -6.30447  -11.65593
       H    17.07249  -10.16520   -9.11949
       O    17.40326   -9.61265   -9.90950
      H1    17.94600   -8.97099   -9.47574
       H    18.86602   -3.41853  -16.79511
       O    18.26124   -2.67239  -17.04731
      H1    18.05096   -2.32752  -16.15414
       H     8.99088   -7.28266  -17.25358
       O     9.54759   -6.62967  -17.69549
      H1     9.17090   -5.78351  -17.37447
       H    18.20831   -9.04859  -14.90403
       O    18.71845   -8.81320  -14.08308
      H1    18.05096   -8.43469  -13.50352
       H    17.86247  -17.23962  -17.28986
       O    17.61547  -16.61276  -17.88498
      H1    17.28901  -15.91624  -17.29284
       H    12.50004    0.30524  -13.65126
       O    12.42996   -0.26279  -14.46962
      H1    13.19992    0.01481  -15.04024
       H    15.24531    0.05719  -14.78218
       O    14.87735   -0.38183  -15.57621
      H1    15.19381   -1.28398  -15.58323
       H    19.84208   -9.24936  -19.11026
       O    18.95362   -8.99373  -19.32089
      H1    18.99749   -8.02368  -19.56542
       H    12.35494  -15.61203  -16.56000
       O    12.03416  -15.84037  -17.48395
      H1    11.63936  -16.70919  -17.35576
       H    12.27475   -9.74021  -14.52631
       O    11.66958   -9.14965  -14.09717
      H1    12.30495   -8.53138  -13.69241
       H    19.14594  -14.68420  -13.70771
       O    18.84959  -14.02738  -14.32320
      H1    18.54614  -13.31284  -13.74895
       H    16.37281  -11.27677  -11.76248
       O    15.43203  -11.21432  -11.68348
      H1    15.25658  -11.23002  -10.77866
       H    14.96336  -10.58478  -17.59247
       O    15.60170  -10.84254  -18.27211
      H1    15.11023  -11.49288  -18.82271
       H    15.75615   -7.10111  -10.99855
       O    15.33723   -7.49841  -10.24012
      H1    15.79480   -8.34016  -10.26732
       H    13.63528   -7.19769  -11.12139
       O    12.84225   -7.44091  -11.58394
      H1    12.64748   -8.29258  -11.24217
       H    13.16341   -5.75405  -18.68809
       O    13.38284   -6.04566  -17.74468
      H1    13.15968   -6.98937  -17.78236
       H    16.47637   -4.06961  -18.09879
       O    16.70927   -4.46874  -19.00664
      H1    15.96096   -5.07873  -19.21630
       H    18.27559    1.59326  -18.88561
       O    18.62251    2.48142  -19.12613
      H1    19.41711    2.45484  -18.50815
       H    13.96837  -13.93340  -18.43322
       O    14.04392  -13.17973  -19.02053
      H1    14.81710  -13.27833  -19.57670
       H    17.39213  -14.03153  -15.42749
       O    16.51074  -13.98285  -15.89858
      H1    16.50581  -13.05101  -16.13407

