180
frame 12 | Written by MDAnalysis XYZWriter (release 2.4.3)
       H    -8.68270  -17.28583   12.96693
       O    -8.31182  -17.06759   13.83034
      H1    -7.38378  -17.36980   13.76205
       H    -6.10320  -11.71118   13.41859
       O    -6.17360  -11.10310   14.18789
      H1    -6.47603  -11.76623   14.84568
       H    -4.58695  -16.10965    9.27167
       O    -5.41176  -16.30364    9.80741
      H1    -6.09817  -16.03913    9.17830
       H   -11.96136  -17.65741    6.29172
       O   -11.84220  -17.08246    7.05491
      H1   -12.47451  -16.42713    6.82360
       H     1.81456  -18.65758   11.78398
       O     0.88116  -18.33729   11.78679
      H1     0.52955  -18.69749   10.95421
       H    -1.07431  -19.17970   19.33399
       O    -0.65745  -19.90915   18.88799
      H1     0.22113  -19.78014   19.36486
       H    -5.55057  -11.31727   10.67242
       O    -6.23506  -11.56842   11.26189
      H1    -6.71824  -10.75537   11.52455
       H    -8.19269  -15.64761   16.60379
       O    -7.32228  -15.81714   17.03001
      H1    -7.38585  -15.06079   17.70606
       H   -12.51894  -11.03660   12.91800
       O   -12.89952  -10.18982   12.65429
      H1   -13.21752   -9.94764   13.55596
       H    -5.64968  -13.40207   11.06366
       O    -5.05370  -14.13619   11.39095
      H1    -5.32407  -14.86987   10.77544
       H   -10.22371  -13.23531   19.33427
       O   -10.63182  -12.51721   18.79926
      H1   -10.70650  -11.79727   19.41579
       H    -7.63565   -9.76914   13.01009
       O    -8.39640   -9.97357   12.42184
      H1    -9.11062   -9.99562   13.11485
       H   -13.07696  -17.90817   18.89038
       O   -13.39659  -17.03882   19.13589
      H1   -12.57353  -16.46273   19.27958
       H    -9.64066  -18.79421   11.38827
       O    -9.43109  -17.86462   11.68483
      H1   -10.10669  -17.30086   11.27294
       H   -17.84417  -15.36328   16.52777
       O   -17.23401  -14.88283   15.92589
      H1   -16.40703  -14.74709   16.45068
       H   -15.50871  -18.74004   15.72602
       O   -15.51487  -18.43706   16.63708
      H1   -14.70435  -18.88884   17.04502
       H    -3.39977  -12.23699   14.82900
       O    -2.77094  -12.86517   14.33439
      H1    -2.71558  -12.32526   13.53664
       H    -2.81261  -17.95295   11.07225
       O    -2.53326  -18.07027   10.12777
      H1    -1.93829  -18.80812   10.06696
       H    -6.23844  -19.23808    8.30870
       O    -6.11903  -19.11253    9.29309
      H1    -5.81916  -18.14912    9.26798
       H    -2.95199  -11.45658   17.24319
       O    -3.70249  -11.39051   16.58608
      H1    -4.49198  -11.69375   17.02206
       H    -8.32110  -18.88311   14.70357
       O    -8.38067  -19.67446   15.27334
      H1    -8.38045  -19.27209   16.15751
       H   -14.41483  -13.02389   10.39950
       O   -13.93749  -13.84842   10.29741
      H1   -14.58800  -14.42918   10.74786
       H    -6.01461  -13.26233   16.75017
       O    -6.12454  -12.53831   17.41125
      H1    -7.01995  -12.26458   17.17883
       H   -14.63560  -18.67048   13.49018
       O   -15.57267  -18.29637   13.54346
      H1   -15.40433  -17.32086   13.34863
       H    -3.60720  -14.86639    7.61234
       O    -4.38485  -14.76750    7.01742
      H1    -4.24215  -13.90180    6.57975
       H    -0.17523  -17.94412   16.80954
       O     0.20451  -17.09223   17.05217
      H1    -0.55446  -16.48462   17.05184
       H    -2.60297  -16.56394    9.44716
       O    -2.71905  -15.69737    8.95545
      H1    -2.78928  -15.06584    9.67631
       H   -10.65470  -15.82281    7.59684
       O   -10.03812  -15.29206    8.09759
      H1   -10.35723  -14.39213    7.94086
       H    -2.48634  -15.72307   18.09442
       O    -1.92789  -15.12410   17.56765
      H1    -2.23933  -15.35467   16.66455
       H    -4.69583  -18.80498    5.76708
       O    -4.55608  -19.11298    4.82793
      H1    -5.42950  -19.30813    4.52807
       H   -15.56921  -18.06614    8.05390
       O   -14.65757  -18.01219    7.82768
      H1   -14.16502  -17.86728    8.65915
       H    -3.53513  -15.63765   15.20084
       O    -2.64540  -15.42075   14.89402
      H1    -2.69551  -14.47329   14.69680
       H   -10.80526  -15.99250    9.64614
       O   -11.26373  -16.04018   10.49708
      H1   -11.14044  -15.10244   10.74753
       H   -13.29174  -11.19635   16.00318
       O   -13.87830  -10.47639   15.86573
      H1   -14.15463  -10.34712   16.78456
       H    -6.41207  -14.57964   12.65617
       O    -7.17738  -14.51362   13.21187
      H1    -7.48391  -15.42090   13.31022
       H   -15.48249  -16.51997   11.37310
       O   -15.59804  -15.68220   11.86305
      H1   -16.56410  -15.42697   11.79582
       H   -12.57437  -13.28638   13.46961
       O   -11.81820  -12.63066   13.25474
      H1   -11.24968  -13.06250   12.61707
       H    -5.08222  -16.75342    7.27241
       O    -4.72885  -17.62869    7.15502
      H1    -3.81824  -17.39054    6.97305
       H   -14.71265  -14.30540   13.04917
       O   -14.45139  -13.59339   13.63956
      H1   -15.19206  -12.95602   13.42507
       H   -11.20098  -13.33601   17.15000
       O   -11.68094  -13.58499   16.39762
      H1   -11.11904  -13.83094   15.69584
       H    -8.68313  -10.52193   17.95272
       O    -8.77038  -11.23434   17.31525
      H1    -9.30251  -11.82723   17.86550
       H    -2.71094  -16.82440   13.65531
       O    -3.06480  -17.50308   13.02161
      H1    -3.92516  -17.63173   13.44392
       H    -6.70106  -14.82464   19.95585
       O    -7.39605  -14.22019   19.53673
      H1    -6.93624  -13.48784   19.16131
       H    -7.67052  -16.87948    7.70612
       O    -7.24960  -16.04326    7.54699
      H1    -7.93558  -15.39928    7.52630
       H   -10.54910  -12.05558    7.69340
       O    -9.76461  -12.57623    7.77274
      H1    -9.61663  -12.73304    8.73068
       H    -5.48619  -18.67609   17.18168
       O    -6.21748  -18.97799   17.76450
      H1    -6.68191  -18.14746   17.88428
       H   -14.97195  -16.44755   18.77790
       O   -15.91417  -16.23680   18.46265
      H1   -15.78962  -16.62066   17.55543
       H    -8.63062  -14.30873   14.71655
       O    -9.43121  -14.70929   15.04520
      H1    -9.59963  -15.53423   14.50994
       H   -14.55916  -14.00406   15.48959
       O   -14.47910  -14.02977   16.46572
      H1   -13.51218  -13.94365   16.71067
       H   -10.07261  -10.87230   15.79679
       O   -10.31722  -10.64944   14.88893
      H1   -10.62280  -11.44126   14.43697
       H   -11.86053  -13.31922   10.20610
       O   -10.91228  -13.18843   10.33051
      H1   -10.86661  -12.25449   10.60467
       H   -13.56409  -17.52117   11.52175
       O   -13.70670  -17.45217   10.51270
      H1   -13.02095  -16.78334   10.34174
       H    -5.69972  -18.56837   13.26947
       O    -5.55929  -17.78815   13.86573
      H1    -5.34984  -18.11030   14.79179
       H    -2.44933  -17.14025   19.47856
       O    -3.34660  -17.09049   18.98732
      H1    -3.90273  -16.78250   19.69284
       H    -6.89477  -17.05932    4.88498
       O    -7.41515  -17.91756    4.76528
      H1    -8.20092  -17.74787    5.27829
       H    -8.76697  -18.35751    8.56487
       O    -9.06329  -18.12456    7.68833
      H1   -10.01912  -17.98621    7.85535
       H    -3.57907  -18.16167   16.99865
       O    -4.03759  -18.62203   16.28715
      H1    -3.62148  -19.55233   16.36353
       H    -5.93858  -14.66429   14.81824
       O    -5.36393  -14.93705   15.58221
      H1    -6.14280  -15.23946   16.11303
       H   -11.31035  -17.71620   13.09812
       O   -12.25659  -18.03462   12.96061
      H1   -12.03485  -18.75768   12.36728
       H    -3.17549  -13.92380   11.55308
       O    -2.27464  -13.66044   11.26803
      H1    -1.66833  -14.05269   11.90699

