180
frame 4 | Written by MDAnalysis XYZWriter (release 2.4.3)
       H    15.07106    9.46956   17.04366
       O    15.23631    9.83166   17.91676
      H1    16.13243   10.15805   17.83113
       H    18.30702   12.44036    3.88647
       O    18.03322   13.19793    4.46146
      H1    17.19497   12.80288    4.81198
       H    15.13103   11.25863    5.39189
       O    15.59601   12.10461    5.24324
      H1    14.93055   12.72911    4.90536
       H    11.40608   13.46661   11.99436
       O    10.74357   13.56842   11.29146
      H1     9.93145   13.61713   11.79975
       H    12.26588   14.59429   18.00645
       O    13.25063   14.47505   18.10669
      H1    13.63594   15.37248   18.37393
       H    16.05829   14.54684    2.45123
       O    16.81053   15.07965    2.77668
      H1    17.22348   14.42454    3.40137
       H     9.62305   18.28489   16.76037
       O    10.26605   17.58690   17.01243
      H1    11.10842   18.00586   16.95977
       H    11.28639   18.64690   14.34334
       O    12.19806   18.68097   14.06375
      H1    12.64723   18.71209   14.99038
       H    17.32766   12.75885   12.95899
       O    17.61928   12.10658   13.61541
      H1    18.25386   11.57040   13.11012
       H    13.86623    8.33101   16.12376
       O    14.29904    8.80898   15.42155
      H1    13.81169    9.67318   15.54953
       H    16.02440   17.58936   11.22157
       O    15.95413   16.83480   10.61440
      H1    16.29645   17.25706    9.81928
       H    14.92790    9.35123   13.67526
       O    14.80391   10.05201   13.04063
      H1    15.47505    9.86326   12.35338
       H    11.50508   16.79946    5.23627
       O    12.30659   17.33371    5.26050
      H1    11.97119   18.04184    5.83203
       H    14.65564   13.53133   11.92996
       O    14.20593   13.59948   11.06543
      H1    14.96231   13.46492   10.50049
       H    18.21416   14.31379    7.87549
       O    17.99272   15.26676    7.80774
      H1    18.47586   15.48640    6.94294
       H    13.36620   10.05310   11.99809
       O    12.52402    9.65241   11.66129
      H1    12.28500   10.31869   11.01293
       H    11.30171   16.46996   11.23513
       O    10.52670   16.95079   11.59784
      H1     9.84519   16.47389   11.10515
       H     8.68506   16.83535   14.32077
       O     9.53537   16.32715   14.28666
      H1     9.94481   16.75378   13.51480
       H    19.85522   16.68928    5.88927
       O    19.09352   16.22845    5.48667
      H1    18.51499   16.96512    5.12453
       H    12.41911   15.98012   15.70057
       O    12.30414   15.58550   14.85957
      H1    11.34991   15.80302   14.61878
       H    17.93368   13.90224   18.57461
       O    17.87530   13.66930   19.51282
      H1    17.72470   12.76490   19.37171
       H    19.14874    5.94382   15.32919
       O    18.60057    6.75223   15.29012
      H1    17.75109    6.37094   14.98021
       H    18.94369   16.03093   13.32899
       O    18.45514   16.88327   13.52034
      H1    17.54504   16.53508   13.54573
       H     7.60668   13.81458   13.41867
       O     8.57282   13.68970   13.68050
      H1     8.80276   14.66296   13.66462
       H    14.50752   17.55941   18.00826
       O    14.57215   16.82603   18.63308
      H1    15.51800   16.64144   18.60241
       H    17.56947   13.71990   16.62076
       O    18.22789   14.30403   16.95660
      H1    19.04083   13.89037   16.57571
       H    18.32668    9.80529   17.54040
       O    18.01099   10.65186   17.85933
      H1    17.63840   11.02923   17.08919
       H    13.32235   15.28921   11.22388
       O    13.38373   16.25284   11.22766
      H1    14.31446   16.33801   10.94507
       H    12.54031   11.89000   15.21594
       O    12.84851   11.05823   15.53534
      H1    11.96206   10.73090   15.66303
       H    13.31576   18.06769    7.87897
       O    14.07393   18.64097    7.88678
      H1    14.80921   18.04126    7.70377
       H    18.34962    7.28218   17.26603
       O    18.89961    7.86778   17.87734
      H1    19.56342    8.01563   17.19569
       H     8.87577   17.44555   20.19119
       O     8.73430   18.13351   19.49164
      H1     9.50205   17.90042   18.90028
       H    10.04902   19.49268    9.64786
       O     9.41820   18.84752    9.80821
      H1     9.78443   18.26097   10.44904
       H    17.23634   17.94234    3.98069
       O    17.14631   17.89808    4.92830
      H1    16.31924   17.39141    5.09737
       H    13.84659   12.48014   18.71905
       O    13.62148   11.66111   19.16383
      H1    14.14802   11.02600   18.60071
       H    10.51613   15.93664   17.45592
       O    10.66881   14.98836   17.63641
      H1     9.99090   14.62598   17.05703
       H    16.89908   14.99344   10.73106
       O    17.16028   14.16189   11.14044
      H1    17.79341   13.79599   10.51924
       H    15.75799   12.51834   15.93591
       O    16.67613   12.32488   15.96121
      H1    16.90749   12.31423   14.98373
       H    19.77960   18.83517    7.10528
       O    19.68338   19.12239    6.16625
      H1    18.77036   19.41959    6.12713
       H    12.64877   19.60095   17.36929
       O    12.72115   18.78560   16.77613
      H1    13.70059   18.78520   16.56523
       H    14.01828   16.89375    5.20827
       O    14.86641   16.42736    5.45344
      H1    14.78976   15.65279    4.81527
       H    16.31932   18.71548   16.33007
       O    15.49724   19.14540   16.69694
      H1    15.36016   19.75348   15.96427
       H    11.59559   16.06946    8.00639
       O    11.79859   16.84162    8.53632
      H1    11.05269   17.39636    8.33386
       H    12.82286   13.86749   13.92024
       O    12.38911   13.22787   13.30160
      H1    12.92145   12.47441   13.45202
       H    14.89637   15.97837    7.26457
       O    14.64964   15.48766    8.10088
      H1    14.13087   16.00326    8.73120
       H    13.86273   11.54316    8.28515
       O    12.93428   11.66825    7.95611
      H1    12.88386   10.90090    7.41636
       H    12.74840   13.03489    7.18885
       O    12.77659   13.78053    6.54514
      H1    13.33668   14.41343    7.06944
       H    17.07070   17.67344   19.01187
       O    17.25467   16.72209   18.86661
      H1    17.74241   16.52993   19.68714
       H     7.93743   14.64465   11.08046
       O     8.22384   15.54160   10.75941
      H1     8.70401   15.36704    9.94584
       H    13.39253   13.68149    4.70897
       O    14.07457   14.07979    4.17312
      H1    13.89237   13.81441    3.23474
       H    15.59217   12.48836    7.09380
       O    15.59733   12.51067    8.09047
      H1    15.32224   13.45480    8.23603
       H    13.77694   13.88428   16.08498
       O    14.38055   13.83917   15.35046
      H1    14.70978   14.79155   15.19193
       H    15.44074   16.13142   12.81036
       O    15.16206   16.32245   13.72844
      H1    14.24474   16.64233   13.59992
       H    17.59589   12.41360    9.10601
       O    18.50698   12.64510    9.33891
      H1    19.02155   11.97378    8.90515
       H    17.20925   18.42603    8.16921
       O    16.66714   17.61897    8.12541
      H1    17.32718   16.94854    8.05759
       H    18.55055   17.70143   15.13600
       O    18.20499   18.26197   15.85140
      H1    18.75802   17.96027   16.58134
       H    14.03883   18.69250   10.11215
       O    13.58011   18.86825   10.94825
      H1    13.13383   18.02239   11.08568
       H    10.79821   12.15397   10.36427
       O    10.87187   11.35260    9.86559
      H1    11.40573   11.63637    9.06483
       H     8.74778   13.20959   15.79529
       O     8.31874   13.41484   16.62732
      H1     8.33993   12.64173   17.16812
       H    16.38201    8.01691   11.64431
       O    16.92879    8.80758   11.95592
      H1    17.17362    8.59939   12.84709

