180
frame 9 | Written by MDAnalysis XYZWriter (release 2.4.3)
       H     5.66883   -4.71160   -2.21803
       O     5.41858   -5.59871   -2.53021
      H1     4.57598   -5.33998   -2.91738
       H     8.75760   -9.57916   -3.27330
       O     8.38656   -9.90151   -2.40954
      H1     7.46384   -9.90413   -2.55467
       H     2.69859  -12.86255   -1.30272
       O     2.36166  -13.73581   -1.17705
      H1     2.15548  -13.83400   -0.24456
       H     6.95585  -12.45414    1.80992
       O     7.78213  -12.39063    1.23494
      H1     8.39260  -11.86722    1.78716
       H    -1.26830  -14.08079    3.92726
       O    -1.55754  -13.68788    3.09432
      H1    -2.06846  -12.95476    3.52568
       H    -3.07288   -8.23652   -2.04670
       O    -2.17393   -8.28362   -1.72157
      H1    -1.86751   -7.34934   -1.97029
       H     0.70612   -5.95988   -1.61744
       O     1.47513   -5.64660   -1.14432
      H1     1.23116   -4.72623   -0.89581
       H     3.27930  -12.91615    8.28770
       O     4.01125  -12.51642    8.81559
      H1     4.27936  -11.71157    8.33516
       H     9.31374  -10.51830    4.09098
       O     8.73682  -11.09231    3.57222
      H1     7.98458  -10.43850    3.60848
       H     1.77204   -9.77110    8.32259
       O     1.94171   -8.93697    7.82323
      H1     1.01987   -8.56882    7.80927
       H    -1.20556  -10.59472    1.54848
       O    -2.01692  -11.05398    1.25371
      H1    -1.58173  -11.93465    1.28423
       H    -1.06234   -7.14582    4.86024
       O    -1.84340   -7.22955    5.40868
      H1    -1.35911   -7.52086    6.16233
       H     1.40038   -8.92948    5.90487
       O     0.86205   -8.95888    5.09451
      H1     1.34026   -8.35004    4.51757
       H     2.41694   -4.51679   -2.31624
       O     2.99048   -4.06551   -2.95073
      H1     3.51747   -3.61446   -2.27120
       H     5.09736   -8.73307    6.63367
       O     5.08005   -8.28188    5.76588
      H1     5.50151   -9.02519    5.29207
       H     7.82477   -8.56045    0.35228
       O     7.79547   -7.62055    0.51787
      H1     6.82950   -7.47055    0.37448
       H     4.50783   -7.43584    1.57377
       O     4.83816   -8.07168    2.27401
      H1     4.34466   -7.83392    3.07138
       H     0.68509  -11.90476    1.90643
       O     0.50882  -12.71506    1.43508
      H1    -0.12161  -13.11590    2.07367
       H     4.92145   -8.13431   -5.10171
       O     4.22542   -8.46796   -4.52581
      H1     4.18269   -7.89572   -3.75733
       H     7.57805  -15.60153    1.39890
       O     6.70446  -15.98987    1.59750
      H1     6.21470  -15.93606    0.75582
       H     7.64637  -16.84197   -1.34165
       O     6.85239  -16.20924   -1.45099
      H1     6.07204  -16.80781   -1.41963
       H     3.03844  -17.53108    4.00145
       O     2.77378  -16.58794    3.90028
      H1     2.80031  -16.36630    4.86516
       H     3.92630   -5.50235    2.06655
       O     4.82840   -5.18800    2.16578
      H1     4.71324   -4.68575    2.99345
       H     5.63631  -11.31774   -0.82143
       O     5.54959  -11.92335   -0.08924
      H1     6.45739  -12.14927    0.13816
       H     9.19230   -9.27969    5.56811
       O     9.88991   -9.99776    5.57847
      H1    10.60748   -9.38793    5.27008
       H    10.13290  -10.70459    2.25380
       O    10.89241  -10.99940    1.71950
      H1    10.55391  -11.21342    0.84196
       H     1.18738   -8.92904    1.05576
       O     1.44808   -9.70725    0.51650
      H1     2.33081   -9.78357    0.94180
       H     0.48300   -9.81638   -1.08106
       O     0.20647   -9.60148   -1.97825
      H1    -0.71432   -9.35397   -1.92028
       H     5.28046   -6.22691   -1.17812
       O     5.41337   -6.68734   -0.27889
      H1     4.96516   -6.04506    0.35763
       H     7.83613  -14.14579    5.06481
       O     7.59631  -13.22241    5.19926
      H1     8.18164  -12.63385    4.67995
       H    -2.94253  -12.35221   -0.95259
       O    -3.06765  -11.49886   -1.36877
      H1    -2.43621  -10.97946   -0.85982
       H     2.58546  -13.52858    2.40651
       O     3.35665  -14.08552    2.35961
      H1     3.20858  -14.75573    3.00587
       H     0.25966  -12.81060    5.72596
       O     0.88498  -12.24414    6.15585
      H1     0.43717  -11.34548    6.09160
       H     6.44391  -11.19291    5.14498
       O     6.23226  -10.60286    4.41126
      H1     5.99582  -11.19481    3.69137
       H     2.24462   -9.24920   -4.57944
       O     1.65429   -9.98404   -4.43845
      H1     1.28885   -9.95052   -3.52777
       H     2.55103  -11.53577   -4.62289
       O     2.92022  -12.40586   -4.98305
      H1     3.65059  -12.62675   -4.40345
       H     5.89721  -13.21663    3.74806
       O     5.66268  -12.76798    2.90099
      H1     4.92412  -13.28615    2.57656
       H     7.83337   -4.05929   -0.98034
       O     6.94604   -4.16426   -0.61556
      H1     6.95547   -5.02638   -0.13729
       H     0.50444   -7.74450   -5.24411
       O     0.66434   -7.33959   -4.37301
      H1     0.54578   -8.10821   -3.82212
       H     5.94386  -16.69917    3.28865
       O     5.77640  -17.21044    4.12719
      H1     5.14191  -17.84301    3.84303
       H     4.74312   -4.35323    5.72543
       O     4.17172   -5.01963    6.19032
      H1     4.73630   -5.78686    6.06296
       H    -0.52673  -10.91334    3.93334
       O     0.00554  -10.74180    3.14578
      H1     0.83468  -10.28101    3.49008
       H     0.16581  -13.87985   -1.95454
       O    -0.57784  -13.72376   -1.42436
      H1    -0.09721  -13.57782   -0.61487
       H     2.26546   -6.16643    0.19206
       O     2.51701   -6.64062    1.03739
      H1     1.67664   -6.88566    1.45160
       H     3.61975   -7.66526    5.05328
       O     2.96131   -7.49250    4.36479
      H1     2.61657   -6.67953    4.67703
       H     9.35605  -11.14916   -1.45345
       O    10.02522  -11.57547   -0.92352
      H1     9.69753  -12.49418   -0.96419
       H     4.25904   -8.02911   -1.15613
       O     3.57573   -8.40628   -1.69622
      H1     2.75272   -8.28186   -1.19031
       H     4.95673   -9.98257   -2.58079
       O     5.72658  -10.47506   -2.31316
      H1     5.62148  -11.37870   -2.76490
       H     8.40657  -13.80807    1.44780
       O     8.93747  -14.63619    1.38728
      H1     9.20802  -14.59345    0.44752
       H     1.61840   -4.83382    5.61311
       O     1.78728   -5.00945    4.65211
      H1     0.87380   -5.09337    4.34540
       H    10.95413   -6.42800    0.01032
       O    10.74832   -7.36777    0.10036
      H1     9.73950   -7.41380   -0.03717
       H     5.44157  -13.69816   -3.48342
       O     5.38886  -12.78215   -3.64139
      H1     5.86050  -12.71501   -4.45584
       H     4.19834  -17.45075    1.23829
       O     4.01513  -18.25196    0.75267
      H1     3.32280  -18.65165    1.35631
       H     4.30625   -9.67626    1.65212
       O     3.78528  -10.44748    1.32312
      H1     4.42209  -10.83376    0.72702
       H    -0.21595   -6.41111    2.72217
       O    -0.35174   -5.48088    3.11996
      H1    -1.01323   -5.23729    2.44374
       H     7.15010   -6.97971    4.43910
       O     7.02678   -6.35419    3.74364
      H1     6.30342   -6.58624    3.18719
       H     7.22190   -8.20688    6.11335
       O     8.07654   -7.84722    5.88419
      H1     8.56349   -7.79555    6.69940
       H     0.05773  -17.39888    3.97913
       O     0.25003  -16.65265    3.34583
      H1     1.22270  -16.43681    3.37168
       H     8.64463   -6.25847    1.77888
       O     9.26984   -5.49450    1.76108
      H1     9.57450   -5.57308    0.82385
       H    -0.51048   -8.30332    2.68770
       O    -0.30650   -8.02009    1.83906
      H1    -1.21755   -7.85853    1.53878

