180
frame 8 | Written by MDAnalysis XYZWriter (release 2.4.3)
       H    -8.55200  -15.11769   -2.32305
       O    -7.66650  -15.48394   -2.51073
      H1    -7.04783  -14.73333   -2.47291
       H    -5.25194  -16.69188   -6.89806
       O    -5.46083  -16.32609   -6.07117
      H1    -4.78325  -15.61890   -5.94856
       H     0.52938  -12.83451   -5.29490
       O     1.00550  -13.59091   -4.95627
      H1     0.92614  -13.45228   -3.99469
       H    -1.38138  -12.57613   -7.74260
       O    -1.83720  -12.89866   -8.52687
      H1    -2.30475  -12.09663   -8.76245
       H    -7.53594   -7.20839   -4.92996
       O    -7.13786   -8.04139   -5.30523
      H1    -7.17319   -7.78388   -6.23291
       H    -3.33539   -8.35800   -2.53879
       O    -2.54026   -7.96465   -2.06784
      H1    -2.46808   -7.06944   -2.43568
       H    -8.56211  -10.41467   -2.15196
       O    -7.84098  -11.06995   -2.12619
      H1    -7.81352  -11.42090   -1.22198
       H    -1.96371   -9.83953   -8.74998
       O    -2.84608   -9.97644   -8.35596
      H1    -2.67363   -9.81149   -7.39254
       H    -2.21224  -11.24774   -3.23449
       O    -2.11143  -11.21300   -4.21303
      H1    -2.72587  -10.55904   -4.51297
       H    -0.90065  -11.51761    1.57518
       O    -1.16255  -11.96310    0.79068
      H1    -0.91666  -12.86511    1.06621
       H    -3.06203  -12.69375   -4.44936
       O    -3.62661  -13.37105   -4.79080
      H1    -4.01476  -13.04297   -5.62397
       H    -3.34675  -17.99485   -8.63381
       O    -4.13673  -18.09768   -9.18536
      H1    -4.12147  -19.02200   -9.46010
       H   -10.68050  -14.04274   -2.63543
       O   -10.26509  -14.92771   -2.66588
      H1   -10.60478  -15.22698   -1.83207
       H    -5.37214  -16.78523    0.56578
       O    -5.98213  -17.53709    0.37469
      H1    -6.09492  -17.40642   -0.58853
       H     2.40721  -12.49583   -9.51618
       O     2.09126  -12.66160   -8.64846
      H1     2.55900  -13.51113   -8.54156
       H    -2.71397  -16.61068   -2.91208
       O    -3.40076  -16.84086   -3.53560
      H1    -3.54137  -17.74750   -3.23097
       H    -9.03704  -10.34804   -5.60959
       O    -9.80828  -10.28681   -6.28761
      H1   -10.43371  -10.96136   -5.98139
       H     0.84576  -11.13943   -8.97538
       O     0.31040  -10.32798   -9.04265
      H1     0.86304   -9.84590   -9.64646
       H     0.53661  -15.39284   -8.53802
       O     0.92982  -15.95343   -7.88289
      H1     0.12655  -16.12515   -7.37984
       H    -1.44561  -11.70481   -5.64142
       O    -0.85294  -11.75295   -6.42099
      H1    -0.12636  -11.15412   -6.22250
       H    -5.72255  -15.56783   -9.84177
       O    -6.47404  -16.12777   -9.68910
      H1    -6.95983  -15.43437   -9.18087
       H    -3.49816   -9.36623  -11.17171
       O    -3.61679  -10.20341  -11.61885
      H1    -3.66322   -9.94355  -12.56232
       H    -7.53968  -10.95954   -4.04165
       O    -7.31138  -10.76330   -4.94744
      H1    -7.08407   -9.80701   -4.88143
       H    -2.38319  -14.38721  -13.19585
       O    -1.62877  -13.80571  -13.00822
      H1    -1.47976  -13.90010  -12.07203
       H    -6.97023  -18.31219   -2.65129
       O    -6.31896  -17.72006   -2.17161
      H1    -6.78118  -16.84883   -2.40184
       H     0.27983   -9.04594   -1.80663
       O    -0.09544   -8.82615   -2.65396
      H1    -1.04898   -8.73101   -2.34663
       H    -9.82240  -16.57020   -3.54198
       O    -9.51352  -17.13953   -4.27377
      H1    -8.79291  -16.60588   -4.60585
       H    -2.32063  -12.29737   -1.32336
       O    -2.84644  -11.51996   -1.60899
      H1    -2.47073  -10.92405   -0.97479
       H    -8.75750  -11.21855   -7.52401
       O    -7.97912  -11.48726   -8.15633
      H1    -7.48060  -10.64632   -8.02622
       H    -7.90952  -13.42055   -8.18154
       O    -7.73200  -14.36176   -8.05400
      H1    -7.40352  -14.37567   -7.12548
       H    -5.51848  -12.89352  -11.55100
       O    -5.30021  -12.29026  -10.77100
      H1    -4.78003  -11.63680  -11.20421
       H     1.09073   -9.56060   -5.53216
       O     1.32474  -10.44380   -5.16659
      H1     1.00878  -10.31215   -4.23433
       H    -5.71384   -9.02994   -8.66224
       O    -5.86952   -9.55866   -7.85433
      H1    -5.34466  -10.34331   -8.06980
       H    -8.94644  -15.65348  -11.52891
       O    -8.41449  -15.00051  -11.08615
      H1    -7.65663  -15.60888  -10.86556
       H    -8.11345  -18.12081   -7.45864
       O    -7.13085  -18.16406   -7.56432
      H1    -7.09250  -17.53519   -8.35665
       H    -5.30852  -12.95638   -2.18582
       O    -5.24653  -13.85457   -2.53381
      H1    -4.76237  -13.77007   -3.37572
       H     1.50360   -8.27424   -6.74785
       O     0.56696   -8.31516   -7.03631
      H1     0.55402   -9.00714   -7.75338
       H    -6.04313  -12.48926   -6.81248
       O    -5.08460  -12.50289   -6.83564
      H1    -4.93403  -13.12527   -7.55007
       H     3.29662  -13.92016   -6.24027
       O     3.23073  -14.79774   -6.67687
      H1     2.28575  -14.94596   -6.82272
       H    -4.12420  -14.12615   -1.18056
       O    -3.70901  -14.14902   -0.28570
      H1    -3.02109  -14.78730   -0.35067
       H    -6.93405   -9.13885    0.60926
       O    -7.14288  -10.03080    0.92812
      H1    -6.36358  -10.43811    0.59308
       H    -8.98541   -8.90691   -8.98200
       O    -8.71503   -8.04551   -8.85347
      H1    -7.71057   -8.08502   -8.87716
       H    -9.17355  -13.15301  -11.64397
       O    -9.03606  -12.26241  -11.97873
      H1    -8.31514  -11.98746  -11.40813
       H    -3.48530   -5.52868   -5.96722
       O    -4.22628   -6.01076   -5.62365
      H1    -4.91764   -5.69617   -6.24814
       H    -0.28274   -6.98680   -5.39715
       O     0.07928   -6.58761   -4.61253
      H1     0.12704   -7.42150   -4.02723
       H    -4.08405  -10.07643   -6.47927
       O    -3.41638   -9.56887   -5.94459
      H1    -3.83692   -8.69036   -5.85580
       H     0.01735  -14.69648   -2.27506
       O    -0.44877  -13.84381   -1.97270
      H1     0.34274  -13.41382   -1.67108
       H    -4.15089  -15.95751    2.35849
       O    -4.90971  -15.62078    1.83949
      H1    -4.44163  -15.10160    1.21647
       H    -5.58754  -10.05752   -2.05288
       O    -5.34017   -9.41028   -2.72660
      H1    -5.96785   -9.50533   -3.41740
       H     0.55797  -13.96450  -10.46109
       O    -0.31756  -14.36446  -10.38068
      H1    -0.77628  -13.72332   -9.81571
       H    -1.57743  -17.35802   -6.09499
       O    -0.91043  -16.71354   -5.90374
      H1    -1.47333  -16.09577   -5.40382
       H    -5.91411  -18.64511   -5.85719
       O    -5.77522  -19.07946   -5.02337
      H1    -5.37308  -18.34229   -4.53031
       H    -3.58152  -14.45814   -8.45822
       O    -4.45567  -14.43626   -8.84011
      H1    -4.37600  -13.56127   -9.33502
       H    -5.89295   -7.09226   -2.53801
       O    -5.33596   -6.40129   -2.91585
      H1    -5.26740   -6.59857   -3.85251
       H    -4.27076  -11.76644   -0.54544
       O    -5.20783  -11.70385   -0.22085
      H1    -5.20413  -12.46849    0.35852
       H    -1.63378  -10.43888  -11.49872
       O    -0.68401  -10.39071  -11.78425
      H1    -0.26184  -10.45718  -10.90950
       H    -2.18365  -19.50938   -7.06344
       O    -1.73741  -18.90505   -7.71839
      H1    -0.96738  -19.50016   -7.70326
       H     0.51112  -15.71364   -4.01074
       O     0.87034  -15.90654   -3.12266
      H1     1.79650  -16.06833   -3.44509
       H   -10.50211  -15.49399   -7.64752
       O   -10.18520  -15.50593   -8.58171
      H1    -9.23506  -15.19060   -8.45429
       H    -7.13220  -15.88132   -5.66402
       O    -7.88397  -15.37535   -5.34058
      H1    -7.62548  -15.21430   -4.41055

