180
frame 12 | Written by MDAnalysis XYZWriter (release 2.4.3)
       H    16.90938  -17.07071    1.27581
       O    16.72076  -16.61176    2.11856
      H1    17.42647  -16.78379    2.65960
       H     6.97313  -13.89013    3.38715
       O     7.75502  -13.89434    3.93970
      H1     8.12259  -14.75375    3.89320
       H    11.43045  -13.46780   -3.95851
       O    10.57842  -13.19553   -4.31972
      H1    10.81777  -12.36090   -4.79028
       H    16.51236  -17.82062   -2.66008
       O    16.65547  -16.89678   -2.93196
      H1    17.58922  -16.77371   -3.05525
       H    12.90003  -14.77339   -2.63312
       O    12.66795  -15.23347   -1.78619
      H1    12.35414  -16.07073   -2.18024
       H     3.46651  -16.76902   -1.95797
       O     4.12863  -17.41841   -1.55901
      H1     3.71247  -17.39931   -0.68660
       H     5.95665  -17.28123    5.14957
       O     5.99112  -16.74083    5.95230
      H1     6.99068  -16.80522    6.26577
       H     5.23751  -12.00780    2.54432
       O     5.59408  -11.33524    1.91393
      H1     6.22661  -10.75801    2.49357
       H     9.11967  -16.63013    5.84627
       O     8.63010  -16.58182    6.70249
      H1     8.93121  -15.71732    6.90807
       H    17.77949  -12.34891    6.23038
       O    17.37347  -13.03643    5.64320
      H1    16.42676  -12.98266    5.87885
       H    11.88769  -13.31658    2.62483
       O    11.06749  -13.71682    2.98558
      H1    10.63122  -12.83585    3.02182
       H    11.26391  -17.68862   -3.54779
       O    11.13724  -18.09192   -2.67792
      H1    11.86564  -18.69138   -2.61540
       H    18.66802  -15.42735    6.54284
       O    17.86170  -15.52449    6.05878
      H1    17.58612  -14.64172    5.79353
       H     8.52854  -10.72314    3.96354
       O     8.24085  -10.98067    3.00965
      H1     8.05507  -11.91333    3.16476
       H    13.64688  -10.77055   -1.72086
       O    13.21651  -10.90097   -2.60396
      H1    12.35685  -11.14973   -2.30645
       H    17.92547  -18.35182   -0.44068
       O    17.18430  -18.66944    0.13965
      H1    16.70576  -19.07002   -0.58875
       H     9.54380  -16.49415   -3.92416
       O    10.12100  -16.16443   -4.65226
      H1    10.21601  -15.22283   -4.43898
       H    13.53941  -17.12586    6.69029
       O    14.40200  -17.47588    6.95466
      H1    14.14402  -18.39602    7.18965
       H    10.66304  -17.45713   -0.95431
       O    10.34451  -17.39827   -0.04563
      H1     9.67560  -16.69304   -0.07456
       H    16.34328  -14.28560    0.08848
       O    16.59266  -13.47803    0.61061
      H1    16.82133  -13.92897    1.45267
       H     7.22108  -16.30941   -2.45514
       O     7.63585  -15.69214   -3.06370
      H1     7.36203  -14.87606   -2.63537
       H     7.43568  -15.24562    1.37389
       O     7.46510  -16.23071    1.48453
      H1     7.07930  -16.49233    0.64264
       H     5.02673  -17.17939    7.49292
       O     4.44173  -17.46711    8.18070
      H1     4.09595  -18.31977    7.88734
       H    13.38842  -14.09743    1.52149
       O    13.52864  -13.17214    1.42526
      H1    14.41864  -13.08880    1.09407
       H     7.00913  -18.31166   -1.48904
       O     6.74776  -17.45437   -1.10797
      H1     5.77948  -17.44686   -1.13649
       H    17.58661  -18.67051    7.64182
       O    18.09650  -19.32853    7.18396
      H1    17.87048  -19.17941    6.27360
       H    13.86675  -13.61568   -4.63033
       O    13.30096  -13.72017   -3.80180
      H1    13.54443  -12.88065   -3.35571
       H     9.03970   -9.91140    5.98446
       O     9.31294  -10.61049    5.40696
      H1    10.23165  -10.43960    5.15084
       H     9.89494  -10.54028    1.68282
       O    10.78252  -10.93152    1.87571
      H1    11.06164  -11.11127    0.97253
       H     7.62431  -14.02290    7.29714
       O     8.34354  -13.67883    6.71476
      H1     8.01065  -13.88177    5.77324
       H    16.89691  -15.89096    7.62139
       O    17.01923  -16.46304    8.39333
      H1    16.08336  -16.63408    8.60740
       H     6.40655  -13.02149    6.10446
       O     5.42547  -13.07339    5.93058
      H1     5.32774  -13.23075    4.98044
       H    13.56408  -13.09756    4.97393
       O    13.89293  -13.69813    4.24141
      H1    13.77100  -13.21227    3.45741
       H    12.51661   -9.08772    5.00530
       O    11.64207   -9.25020    4.58414
      H1    11.93683   -9.23870    3.63530
       H    15.10496  -19.46024    4.89228
       O    15.84795  -19.01716    5.34442
      H1    15.36573  -18.38558    5.87871
       H     9.95892  -12.06282    6.89515
       O    10.75474  -12.18727    7.47797
      H1    11.00725  -11.24870    7.58454
       H    13.02944  -15.46110    5.43313
       O    12.30985  -15.94047    5.79609
      H1    11.57256  -15.33960    5.66589
       H    15.66663  -16.05566   -1.78829
       O    15.22255  -15.70659   -0.97133
      H1    14.39352  -15.43501   -1.37429
       H     4.81099  -14.70550    3.31582
       O     4.88477  -13.70282    3.17772
      H1     3.91027  -13.49387    3.33196
       H    11.70580  -17.59250    6.08522
       O    11.50128  -18.54322    6.15627
      H1    11.26440  -18.61548    7.06237
       H    11.24992  -18.40403    9.50927
       O    10.63612  -18.77445    8.82454
      H1     9.81819  -18.20362    8.92385
       H    10.90198  -14.38570   -1.35843
       O    10.03966  -14.33015   -0.91895
      H1     9.51915  -14.35209   -1.71062
       H    10.22643  -16.70551    3.54903
       O     9.73081  -16.10766    4.11905
      H1    10.25212  -15.30819    3.82184
       H     6.17162  -16.53104    2.51228
       O     5.48985  -16.46258    3.16213
      H1     4.98636  -17.27030    3.09000
       H    11.02952  -17.43704    1.40930
       O    11.51451  -17.56696    2.22763
      H1    12.32641  -17.14425    1.84011
       H    10.30402  -11.41558   -1.65122
       O    11.02322  -11.71822   -1.08055
      H1    10.83883  -12.65894   -0.95524
       H     9.48045  -14.08131   10.00106
       O     9.19166  -13.21891    9.64033
      H1     9.52960  -13.16937    8.72370
       H    13.75991  -11.96654    7.68070
       O    13.34888  -11.73728    6.83911
      H1    12.45398  -12.14220    6.97094
       H     6.59441  -12.64810    1.17927
       O     7.25469  -13.35765    1.03117
      H1     8.01016  -12.86254    0.71099
       H    14.52916  -17.45159    1.45004
       O    13.82824  -17.29226    0.81429
      H1    14.21034  -16.83759    0.00545
       H     3.56583  -17.97598    1.98156
       O     3.13405  -17.60026    1.20604
      H1     2.26253  -18.10131    1.11332
       H     7.58819  -16.99523    9.71475
       O     8.49670  -17.08639    9.32502
      H1     8.32663  -16.76630    8.42570
       H    13.90087   -9.94938    0.29213
       O    14.46926   -9.89177   -0.47875
      H1    15.27460  -10.28508   -0.15192
       H    15.69562  -17.59128   -4.49681
       O    15.01467  -17.43266   -5.21732
      H1    14.59588  -18.27859   -5.38020
       H     5.59523  -15.60594    7.43024
       O     6.05849  -15.17423    8.15663
      H1     5.33811  -14.71237    8.61320
       H    12.58398   -8.47450    1.66005
       O    13.02513   -9.31836    2.03154
      H1    12.28447   -9.89183    1.84979
       H    17.13664  -11.57466    0.51741
       O    16.92350  -10.58034    0.68775
      H1    17.20521  -10.44874    1.60041
       H    18.81117  -17.76223    4.03771
       O    18.90199  -16.83669    3.85541
      H1    18.63819  -16.40483    4.68899
       H    17.40030  -13.64832    3.89328
       O    17.53834  -14.03789    3.01148
      H1    17.10020  -14.89202    3.05198
       H    12.63441  -16.84208   10.61679
       O    12.70225  -17.82139   10.48414
      H1    12.30612  -18.10806   11.35896

