180
frame 12 | Written by MDAnalysis XYZWriter (release 2.4.3)
       H     3.13221  -12.01548   18.10104
       O     3.61535  -11.15309   18.20586
      H1     3.90980  -11.11940   19.10746
       H    -1.03961  -13.63236   18.42710
       O    -0.35910  -13.28462   19.02526
      H1    -0.42104  -12.34292   18.91399
       H     4.68458  -11.01828   11.45238
       O     4.59810  -11.98601   11.54031
      H1     4.37718  -12.28923   10.65723
       H    -1.00091   -7.15042   19.30316
       O    -0.41350   -6.38889   19.37969
      H1    -0.99108   -5.74513   18.96333
       H     0.80316   -9.96663   14.21360
       O     0.95853   -9.12888   13.69739
      H1     0.38387   -9.46366   12.94980
       H     2.28914   -3.86062   14.58044
       O     2.90065   -4.31920   15.19680
      H1     2.46564   -3.94837   16.00932
       H     3.16962    0.25797   18.60457
       O     3.79786   -0.43540   18.96382
      H1     3.70333   -0.42355   19.92613
       H    -4.81440   -5.91488   17.88095
       O    -5.15574   -5.92225   16.98956
      H1    -5.58825   -5.00885   16.87281
       H     2.77981   -2.28060   18.15248
       O     2.49634   -3.13492   17.78126
      H1     3.30698   -3.70187   18.00025
       H     8.43420   -2.61740   19.08455
       O     8.77552   -3.52896   19.18892
      H1     9.22405   -3.71077   18.32446
       H    -5.31723   -9.42203   13.43176
       O    -5.10215   -8.65422   12.96099
      H1    -4.16774   -8.52634   13.29679
       H    -1.66350   -7.31048   17.06304
       O    -2.08516   -7.88701   17.68575
      H1    -1.61055   -8.72597   17.56003
       H     8.51217   -3.72963   13.15509
       O     7.66471   -3.42778   12.75068
      H1     7.08403   -4.13228   13.01704
       H    -3.80643   -7.63483   18.57224
       O    -4.21024   -7.13778   19.32488
      H1    -5.07702   -7.65892   19.47625
       H     4.73733   -6.33999   15.80397
       O     5.16043   -6.88238   16.46972
      H1     4.61961   -7.68575   16.36791
       H     1.38504   -6.55446   18.89700
       O     2.27969   -6.94194   18.85272
      H1     2.25478   -7.10032   17.92920
       H     4.55826   -8.73184   11.02695
       O     4.93450   -9.10345   11.85491
      H1     5.18030   -8.34899   12.43672
       H    -0.05408    0.30267   17.13218
       O     0.77453    0.23037   17.64887
      H1     1.42346    0.74015   17.07914
       H     6.84349   -8.55514   17.58900
       O     7.34678   -9.26417   17.10224
      H1     7.18967  -10.00201   17.68806
       H     9.06184   -8.68818   16.81196
       O     9.89616   -8.23000   16.93575
      H1     9.76957   -7.63567   17.65137
       H     7.97775   -4.53747   15.50792
       O     7.70838   -4.08617   16.36077
      H1     7.64865   -4.87857   16.89986
       H    -4.68386   -9.21405   16.46013
       O    -5.38474   -8.71829   16.99723
      H1    -5.45112   -7.77566   16.75441
       H    -2.95199  -11.45658   17.24319
       O    -3.70249  -11.39051   16.58608
      H1    -4.49198  -11.69375   17.02206
       H    -1.98898   -1.59357   15.95128
       O    -2.37270   -2.49741   16.16426
      H1    -1.43999   -2.87047   16.36450
       H    -1.99454  -12.00663   11.71215
       O    -2.41749  -11.16952   12.13101
      H1    -1.82884  -10.45731   11.81499
       H     0.04632   -9.88382   10.57922
       O    -0.45352   -9.54502   11.36426
      H1    -0.71448   -8.68668   11.00690
       H     7.64524  -10.79537   12.69763
       O     7.46145   -9.98440   12.25752
      H1     6.52803   -9.90736   12.17350
       H     9.60176  -11.58528   16.70656
       O     9.09577  -12.16815   16.07824
      H1     8.21991  -12.30081   16.57274
       H    -4.05277   -1.78559   19.16179
       O    -3.50726   -1.35134   18.51212
      H1    -3.24743   -2.06980   17.81100
       H     2.88899  -13.78256   19.34943
       O     2.44765  -13.57415   18.43514
      H1     1.48349  -13.54076   18.71558
       H    -0.10742   -4.30260   10.79090
       O    -1.04223   -4.02669   10.99572
      H1    -1.10200   -3.40096   10.28409
       H     3.08616  -12.96637   12.71157
       O     2.41541  -13.10493   13.38952
      H1     2.26333  -13.99672   13.30611
       H     2.73665   -7.48592   12.05657
       O     2.18568   -7.86339   11.31756
      H1     1.51070   -8.34110   11.79779
       H     3.31907   -9.83320   17.00287
       O     2.88030   -9.33905   16.28407
      H1     3.17049   -9.78140   15.49742
       H     5.43024  -11.84376   16.01386
       O     6.06388  -12.38205   16.41756
      H1     5.84128  -12.58182   17.32115
       H     6.11280    0.25121   16.94933
       O     5.48765    0.89201   17.28082
      H1     5.20432    0.42876   18.10956
       H     4.59706  -10.26823   14.02332
       O     4.32086  -10.99172   14.60750
      H1     3.68909  -11.50569   14.11332
       H     2.01275  -14.47752   16.62996
       O     1.78618  -14.85181   15.78418
      H1     1.24375  -15.57821   15.94693
       H     1.33912   -3.62137   12.86817
       O     1.35957   -2.79299   13.43159
      H1     1.36849   -2.07137   12.78141
       H    -2.85127   -2.49178   13.04722
       O    -3.10200   -3.17408   13.67010
      H1    -2.75287   -2.89914   14.52692
       H     1.87080   -6.07928   10.90712
       O     1.50718   -5.12141   10.77808
      H1     2.00147   -4.97594    9.93930
       H     0.15655   -4.09180   16.18187
       O    -0.03091   -3.74196   17.05057
      H1     0.79699   -3.27360   17.35699
       H     2.67553   -1.87958   14.23816
       O     3.33687   -1.29850   14.57895
      H1     3.96103   -1.89407   15.00896
       H    -2.25741   -9.32220   14.00814
       O    -2.47686   -8.35514   14.04535
      H1    -2.15529   -8.07248   14.93619
       H    -0.60427  -12.49562   14.34968
       O     0.14645  -11.95694   14.65103
      H1     0.84024  -12.60588   14.53801
       H     6.24902   -5.44438   19.18001
       O     7.12382   -5.50387   18.79117
      H1     7.40406   -4.60177   19.06237
       H    -1.13488   -4.05028   14.09512
       O    -0.58894   -4.82156   14.41400
      H1    -1.36330   -5.32946   14.65819
       H     7.49841   -0.20453   14.27268
       O     7.36985   -0.37644   15.25891
      H1     6.61210   -1.00172   15.32024
       H     0.24673   -7.85593   15.02532
       O    -0.09102   -7.18213   15.56855
      H1     0.19159   -6.45945   14.99508
       H     4.71847   -3.12690   16.15879
       O     5.30243   -2.51935   16.57857
      H1     6.13108   -2.98346   16.47428
       H    -0.07041  -11.28409   16.60511
       O    -0.18637  -10.76827   17.42579
      H1     0.66478  -10.24871   17.38382
       H     6.34202   -6.73448   13.99749
       O     5.91861   -5.93417   13.60848
      H1     6.12608   -5.95387   12.67268
       H     3.63503  -14.56782   15.73089
       O     4.54134  -14.81941   15.87878
      H1     4.92723  -13.92646   16.02896
       H     3.67889   -5.77477   18.74112
       O     4.22938   -5.11960   18.30319
      H1     4.62059   -5.71221   17.63986
       H     6.39367   -2.03624   19.91000
       O     5.91545   -2.82804   19.67615
      H1     5.64157   -2.70583   18.74389
       H     2.89710   -6.33440   14.09436
       O     3.49083   -6.86434   13.55519
      H1     4.27690   -6.25886   13.58165
       H     6.69416   -6.33897   10.43258
       O     6.08694   -5.82281   10.98409
      H1     5.22062   -6.04026   10.49834
       H     7.32955   -8.87350   13.72445
       O     6.67725   -8.39298   14.27796
      H1     6.76196   -8.90759   15.12120
       H    -1.12313   -6.29900   11.86838
       O    -1.92450   -6.85158   11.80311
      H1    -1.87815   -7.27366   12.70005
       H    -3.71532   -5.59052   15.64379
       O    -3.14408   -5.57216   14.86844
      H1    -3.50332   -4.83093   14.31688

