180
frame 11 | Written by MDAnalysis XYZWriter (release 2.4.3)
       H     3.13393  -12.05720   18.33696
       O     3.66624  -11.21202   18.29065
      H1     3.50648  -10.97644   19.19307
       H    -5.54239  -11.22056   20.04769
       O    -6.18361  -10.71531   19.44621
      H1    -5.89984  -11.32154   18.66877
       H    -0.72413  -13.93869   18.09152
       O    -0.33224  -13.33034   18.74376
      H1    -0.08454  -12.60090   18.08931
       H    -0.94517   -6.41555   18.81241
       O    -0.24157   -5.99339   19.30220
      H1     0.01689   -5.37204   18.57799
       H     1.14570   -9.93929   14.25212
       O     0.70983   -9.24235   13.83277
      H1     0.36346   -9.49742   12.97334
       H     2.09178   -3.39001   14.80926
       O     2.58992   -3.79218   15.54230
      H1     2.24586   -3.35609   16.32007
       H    -6.59610  -11.82136   13.56102
       O    -5.99596  -11.73974   14.27824
      H1    -5.97534  -10.77844   14.34476
       H    -6.14265   -8.37828   12.26611
       O    -6.68154   -7.88767   11.59457
      H1    -7.58674   -8.27850   11.54948
       H    -4.71550   -5.71541   17.10574
       O    -5.30177   -5.73328   16.36151
      H1    -5.36598   -4.75093   16.18438
       H     1.96647   -1.81380   17.97099
       O     2.00124   -2.80238   17.97592
      H1     2.93390   -2.98397   18.28778
       H    -8.92037  -15.68017   16.79765
       O    -8.37505  -15.83490   17.63523
      H1    -8.15346  -14.93409   17.91422
       H    -9.08952  -10.25312   13.85331
       O    -8.86788   -9.69813   13.05396
      H1    -9.74620   -9.48922   12.66705
       H    -4.63920  -10.47910   13.22659
       O    -4.79097   -9.49234   13.19340
      H1    -3.92768   -9.16839   13.49409
       H    -1.84082   -8.32582   17.17518
       O    -2.71061   -8.40235   17.57286
      H1    -2.66259   -9.23635   18.06586
       H    -2.90196  -11.84204   15.39307
       O    -2.35578  -12.37552   14.78437
      H1    -2.48742  -11.94666   13.95094
       H    -3.64335   -6.71434   18.92792
       O    -4.29123   -6.06652   19.01270
      H1    -4.94663   -6.65446   19.43236
       H     1.61247   -6.51649   19.15562
       O     2.52651   -6.76307   19.18498
      H1     2.65675   -6.87035   18.17844
       H    -5.74674   -8.97211   15.79814
       O    -6.07722   -8.47928   16.54465
      H1    -5.77529   -7.53141   16.29287
       H    -3.09053  -11.17518   17.33755
       O    -3.78121  -11.12307   16.63183
      H1    -4.54455  -11.63283   17.04096
       H    -4.01626   -7.37468   10.32554
       O    -4.38457   -8.21064    9.94920
      H1    -5.18375   -8.22133   10.50248
       H    -1.60724   -1.56381   16.44515
       O    -2.15524   -2.31959   16.25882
      H1    -1.62777   -3.01835   16.65762
       H    -2.47828  -12.36013   11.78014
       O    -2.49160  -11.51836   12.18920
      H1    -1.62794  -11.21435   11.94202
       H    -5.57767  -13.04183   17.04039
       O    -6.08842  -12.39315   17.50943
      H1    -6.84960  -12.23732   16.94644
       H    -7.68603   -7.48511   16.24645
       O    -8.46474   -6.89819   16.18816
      H1    -8.89275   -7.03708   17.00331
       H     0.15369   -9.93353   10.62948
       O    -0.37041   -9.52798   11.34479
      H1    -0.81231   -8.77918   10.88591
       H    -4.30139   -1.68622   18.75039
       O    -3.94772   -1.15548   17.96797
      H1    -3.35420   -1.89238   17.58335
       H     0.15283  -17.72239   16.90401
       O     0.59674  -16.85303   17.12293
      H1    -0.22123  -16.28221   17.20277
       H     2.88858  -13.90481   19.36784
       O     2.35863  -13.64830   18.61303
      H1     1.53015  -13.48307   19.11411
       H    -2.46233  -15.82695   17.89293
       O    -1.74551  -15.28349   17.51717
      H1    -2.08955  -15.17949   16.60878
       H     2.62156  -13.22687   12.93277
       O     2.00647  -13.32050   13.58488
      H1     2.11324  -14.23196   13.86622
       H     3.27271   -7.28119   13.21519
       O     3.16762   -8.06708   12.66620
      H1     2.43414   -8.48843   13.15137
       H    -3.74943  -15.21144   15.30651
       O    -2.84416  -15.01740   14.91319
      H1    -2.73992  -14.04282   14.98897
       H     3.08344   -9.92759   17.13367
       O     3.03731   -9.17226   16.48911
      H1     3.36437   -9.53066   15.63508
       H     4.82879  -11.38003   15.85295
       O     5.52792  -11.57667   16.54181
      H1     4.83869  -11.65238   17.29592
       H    -5.90362   -2.64100   15.03614
       O    -6.09086   -3.13082   15.83945
      H1    -5.82920   -2.46354   16.51819
       H    -6.54949  -14.21392   13.91705
       O    -7.37991  -14.74053   14.15777
      H1    -7.52088  -15.22762   13.36975
       H     4.30254  -10.65142   13.57360
       O     3.74879  -10.96126   14.31098
      H1     3.34953  -11.76562   13.91737
       H     2.07069  -14.48614   17.01635
       O     2.18090  -14.96890   16.21313
      H1     1.52231  -15.69557   16.36267
       H    -2.24481   -3.04722   13.09769
       O    -3.05598   -3.03682   13.63326
      H1    -2.78509   -2.61521   14.47676
       H    -8.40135  -10.25854   17.81489
       O    -8.54951  -11.06887   17.30348
      H1    -8.92638  -11.61082   17.97697
       H    -2.09593  -11.20700   19.43618
       O    -2.47059  -11.99036   18.99261
      H1    -1.67557  -12.55652   19.00574
       H    -6.89605  -14.57795   19.82464
       O    -7.34727  -13.75038   19.66403
      H1    -6.80859  -13.42970   18.88807
       H    -0.27777   -4.51076   16.57233
       O    -0.25139   -4.11304   17.45403
      H1     0.55043   -3.65410   17.64719
       H    -1.35763   -9.11028   13.76278
       O    -2.23213   -8.67585   13.83156
      H1    -2.20724   -8.41461   14.75153
       H    -0.04014  -12.28830   15.35545
       O     0.76127  -11.75423   15.39278
      H1     1.26073  -12.49301   15.00130
       H    -6.53944   -8.86585   19.79060
       O    -6.53260   -7.93679   19.41377
      H1    -6.10294   -8.11428   18.54438
       H     0.62560   -5.17644   13.77938
       O     0.05240   -5.35362   14.49128
      H1    -0.83138   -5.37024   14.06838
       H    -9.57833  -10.97940   15.95798
       O    -9.85825  -11.03636   15.02679
      H1   -10.07647  -11.98813   14.97952
       H     0.36648   -8.30593   15.84646
       O    -0.26772   -7.72744   16.25992
      H1    -0.06666   -6.93118   15.74342
       H     0.50469  -10.71817   16.88693
       O     0.24745  -10.96270   17.80274
      H1     0.59808  -10.24674   18.37358
       H    -2.92314  -16.82084   19.65316
       O    -3.66684  -16.80230   18.98325
      H1    -4.39236  -16.40794   19.48018
       H    -8.26058   -7.90172   19.26688
       O    -9.07120   -8.01641   18.78177
      H1    -9.63761   -8.45523   19.40358
       H    -3.02449   -5.75703   11.32189
       O    -3.86609   -5.60302   10.82149
      H1    -4.47905   -5.11320   11.43939
       H     4.33639   -5.61693   19.29938
       O     4.74922   -4.93867   18.73565
      H1     4.63737   -5.43231   17.90308
       H    -5.78486  -15.19420   15.69472
       O    -5.21969  -15.00257   16.49450
      H1    -4.87364  -15.91038   16.68481
       H    -9.04196   -5.51586   13.88114
       O    -8.33276   -4.84987   13.99081
      H1    -7.79038   -5.22118   14.68670
       H    -8.42823   -4.65000   17.80618
       O    -8.47611   -4.84755   18.76617
      H1    -8.42029   -5.81389   18.71720
       H    -4.13677   -9.99174    9.79705
       O    -3.92806  -10.89513    9.88272
      H1    -3.64938  -10.93984   10.82839
       H    -0.77141   -6.91832   11.43361
       O    -1.71145   -7.03463   11.54421
      H1    -1.76942   -7.45878   12.43637
       H    -3.68825   -5.71555   14.79730
       O    -2.78078   -5.40642   14.67774
      H1    -2.87399   -4.50962   14.48749

