180
frame 5 | Written by MDAnalysis XYZWriter (release 2.4.3)
       H    -5.53665   -6.88652  -11.12623
       O    -6.34250   -6.30561  -11.09930
      H1    -6.20065   -6.11716  -10.20192
       H    -1.14978    0.45008  -14.29443
       O    -1.98815    0.20227  -13.86691
      H1    -2.71208    0.73225  -14.26921
       H    -2.27989   -2.87332  -13.82987
       O    -2.76757   -2.44789  -14.54066
      H1    -2.38187   -1.56672  -14.45318
       H    -6.70923    1.59378  -17.42377
       O    -7.50769    1.76949  -16.92723
      H1    -8.09188    1.00036  -17.15266
       H    -7.00497    0.66315   -8.08659
       O    -7.05149   -0.30095   -8.08116
      H1    -7.99931   -0.41810   -7.84235
       H    -5.88575   -2.80683  -10.15596
       O    -6.64412   -2.73795   -9.55872
      H1    -6.58716   -1.80985   -9.31617
       H   -12.75353   -2.13139  -16.16660
       O   -13.13229   -1.93091  -17.02508
      H1   -13.89202   -1.42059  -16.83794
       H    -5.72239    1.76587  -14.65567
       O    -6.62973    1.43437  -14.49508
      H1    -7.08592    1.80607  -15.29927
       H    -9.42530   -7.65018   -8.90263
       O   -10.15586   -7.09054   -8.53731
      H1   -10.61633   -6.87789   -9.32265
       H    -6.10415   -1.46683  -14.28332
       O    -6.46029   -1.14741  -15.14210
      H1    -6.59447   -0.19733  -14.89529
       H   -12.46878   -4.14425   -9.02375
       O   -12.17326   -3.27365   -9.34081
      H1   -12.18129   -2.77649   -8.53263
       H    -8.50577   -8.15867  -15.35298
       O    -8.78021   -7.35036  -15.85307
      H1    -7.99213   -6.82221  -16.01954
       H    -5.15077   -1.61385  -16.71529
       O    -4.38650   -1.76202  -17.23322
      H1    -4.69579   -1.91284  -18.10996
       H    -9.49728   -6.52764  -13.48326
       O   -10.23752   -7.01368  -13.21942
      H1   -10.79164   -6.99730  -13.98693
       H   -10.85407   -6.91154  -11.72562
       O   -11.46235   -7.00403  -10.91904
      H1   -11.59496   -8.00021  -11.00536
       H    -9.48498   -3.85645  -10.98679
       O    -8.50204   -4.03392  -11.19521
      H1    -8.10658   -3.45916  -10.50898
       H    -7.60791   -4.33790  -13.59643
       O    -6.76071   -4.67191  -13.35755
      H1    -6.83403   -5.05216  -12.47928
       H   -11.63161   -3.63894  -10.99074
       O   -11.26380   -4.15884  -11.71575
      H1   -11.46334   -5.06230  -11.49166
       H    -2.07533   -5.02899  -11.03867
       O    -2.25917   -5.45588  -10.19325
      H1    -2.72398   -4.73483   -9.76848
       H    -8.15189    0.38467  -10.04237
       O    -8.65248    0.33153  -10.85031
      H1    -8.31260   -0.46366  -11.28483
       H    -8.22133   -2.51274  -12.44897
       O    -7.92822   -1.60620  -12.58299
      H1    -7.87821   -1.51608  -13.54627
       H    -7.60903   -7.58150  -12.00958
       O    -7.67892   -8.50850  -12.40325
      H1    -8.67854   -8.60814  -12.55420
       H    -7.04676    4.05893  -12.76629
       O    -7.35913    4.85070  -13.30097
      H1    -8.32487    4.78679  -13.31751
       H    -1.70337   -1.33691  -17.70176
       O    -1.84391   -0.80306  -16.86740
      H1    -2.77961   -1.06021  -16.78629
       H   -11.42131   -0.20751  -13.43304
       O   -12.26204    0.28916  -13.27831
      H1   -12.01990    1.22761  -13.02206
       H   -10.08816   -3.65343  -14.51855
       O    -9.11440   -3.75263  -14.57814
      H1    -8.93689   -3.78730  -15.55455
       H    -3.78293    2.41613  -15.71190
       O    -3.96183    2.11436  -14.80290
      H1    -3.84707    2.96419  -14.39083
       H    -0.73388   -3.81966  -12.01389
       O    -1.44740   -4.32928  -12.47574
      H1    -1.12349   -5.23989  -12.74911
       H   -14.15775   -1.26239  -10.94423
       O   -14.33203   -1.03279   -9.99493
      H1   -13.40731   -1.05646   -9.65602
       H    -3.21063   -4.68001  -16.51267
       O    -3.74287   -4.39207  -17.29708
      H1    -3.92003   -3.44582  -17.04300
       H    -9.67075   -0.01437   -6.41450
       O   -10.02001    0.19323   -7.27346
      H1   -10.33065    1.06082   -7.00178
       H    -8.27023   -4.78863   -9.19382
       O    -8.50848   -5.00057   -8.23891
      H1    -9.03936   -5.78729   -8.34107
       H   -11.65011   -2.21789   -6.59257
       O   -12.05949   -1.47208   -7.02893
      H1   -11.25773   -0.95027   -7.12885
       H    -4.55066   -0.62773  -11.60541
       O    -4.36230    0.21305  -11.09867
      H1    -4.86800    0.93106  -11.43352
       H    -8.81801    1.60750  -12.00525
       O    -8.77559    2.21726  -12.74904
      H1    -7.86846    1.95293  -13.10938
       H   -11.97329   -0.30432  -17.26385
       O   -11.48218    0.52353  -17.35780
      H1   -10.63991    0.19586  -17.08898
       H   -10.07976    2.64351   -8.50763
       O    -9.59877    2.70200   -9.35106
      H1    -9.88478    1.96918   -9.90229
       H   -14.05864   -3.58196  -13.88476
       O   -14.84130   -4.07390  -14.18284
      H1   -14.43746   -4.69348  -14.76814
       H    -6.42396   -5.13475   -8.09879
       O    -5.88911   -5.82744   -8.53208
      H1    -5.15263   -5.88191   -7.89342
       H    -9.94962   -2.04824  -17.60777
       O   -10.38029   -2.91079  -17.74048
      H1    -9.65767   -3.33728  -18.18619
       H   -10.86674    5.03936  -14.43149
       O   -10.31216    4.74771  -13.72524
      H1   -10.68510    3.87569  -13.51446
       H    -9.40156   -0.58021  -13.18805
       O    -9.73957   -0.01405  -13.87622
      H1    -9.50234    0.93150  -13.55082
       H    -7.87264   -8.96778   -9.44281
       O    -7.55611   -8.36221   -8.76357
      H1    -7.07108   -7.68859   -9.28105
       H    -8.59298    3.28170  -17.29927
       O    -8.81096    4.13646  -17.76777
      H1    -9.44105    4.60705  -17.16862
       H    -6.57705    3.49701   -8.84866
       O    -6.91692    2.58340   -8.76126
      H1    -7.89688    2.74728   -8.82719
       H   -11.81897   -3.94163  -13.52157
       O   -11.99544   -3.62557  -14.39114
      H1   -12.47814   -4.30103  -14.88600
       H   -13.97674    0.56614  -13.29497
       O   -14.92729    0.64820  -13.51134
      H1   -15.25726    1.36172  -12.90184
       H    -9.05037   -0.55332  -15.48806
       O    -9.04576   -0.68777  -16.48582
      H1    -8.14085   -1.06171  -16.55847
       H    -4.01359   -7.30493  -12.43386
       O    -3.99485   -7.50139  -11.45971
      H1    -3.38285   -6.85565  -11.09554
       H    -8.46953   -2.83668   -5.77017
       O    -7.92655   -3.53657   -6.07111
      H1    -8.31375   -3.84784   -6.84749
       H   -13.07027    2.85076  -14.18158
       O   -12.40787    2.93375  -13.51024
      H1   -12.87854    3.16559  -12.67260
       H    -2.74773    0.25010   -8.65529
       O    -3.68378    0.07864   -8.41334
      H1    -4.12324    0.21027   -9.30935
       H    -4.15355   -2.25248  -13.27060
       O    -4.89269   -1.98223  -12.72417
      H1    -5.45598   -2.76148  -12.69308
       H    -3.87042   -1.87709   -8.79039
       O    -3.62672   -2.70406   -9.20049
      H1    -2.69403   -2.75603   -9.00520
       H    -6.94337   -3.20385  -18.88070
       O    -6.32195   -2.45372  -19.05733
      H1    -5.92093   -2.63692  -19.92031
       H    -4.96008    3.22387  -11.48682
       O    -5.73800    2.69637  -11.67560
      H1    -6.05878    2.43446  -10.83946
       H    -6.46301    0.14864   -6.03813
       O    -6.07568    0.77803   -5.37689
      H1    -5.95563    0.23860   -4.56769
       H    -4.97480   -2.93476   -7.65394
       O    -5.16449   -2.85288   -6.70629
      H1    -6.15884   -2.90469   -6.70059
       H    -7.05739   -4.43899  -17.04483
       O    -7.81519   -4.25542  -17.63297
      H1    -8.01570   -5.11778  -17.97514
       H    -5.73053   -6.42004  -16.07431
       O    -6.58767   -5.96980  -15.86612
      H1    -6.38997   -5.56691  -14.93371

