180
frame 0 | Written by MDAnalysis XYZWriter (release 2.4.3)
       H    -7.40015   -0.58482   14.32594
       O    -6.64444   -0.08263   14.09764
      H1    -5.91589   -0.68069   13.99945
       H   -12.73023   -8.59126   17.13647
       O   -12.88012   -7.87543   17.81119
      H1   -13.38914   -8.34168   18.46295
       H   -10.90235   -9.90633   16.07403
       O   -11.48310  -10.39752   16.76381
      H1   -12.30179  -10.45329   16.30227
       H   -12.50486    3.87841   13.84016
       O   -12.71440    3.02889   14.15176
      H1   -12.09462    2.80748   14.79129
       H   -15.75330   -3.61870   12.74735
       O   -15.68538   -3.86285   13.69578
      H1   -16.55505   -3.75574   14.08407
       H   -10.86162  -11.23049   19.99072
       O   -11.62293  -11.51302   19.48700
      H1   -11.63273  -10.93701   18.70549
       H   -19.69511   -5.12835   11.90292
       O   -18.75834   -4.80173   11.92827
      H1   -18.81973   -3.81073   11.78915
       H   -13.09998    2.87469   18.04704
       O   -12.38588    2.51419   18.59167
      H1   -12.13958    3.15131   19.26480
       H   -14.17554   -0.43928   15.66286
       O   -13.24568   -0.40663   15.89704
      H1   -13.01330   -1.03065   15.13607
       H    -6.91983   -5.05466   16.97674
       O    -7.33896   -5.02270   17.86270
      H1    -6.61265   -5.19539   18.47009
       H   -14.29664   -9.65240   15.43841
       O   -14.28531  -10.30722   16.18174
      H1   -15.17912  -10.22622   16.53967
       H   -17.68793    4.98537   15.20450
       O   -16.90388    4.59271   14.74031
      H1   -16.94725    3.74078   15.14838
       H   -10.34392   -2.70631   16.28251
       O   -10.18038   -2.03814   16.86673
      H1    -9.24361   -1.78250   16.74732
       H   -11.31615   -8.34731   14.31077
       O   -10.65257   -8.92515   14.72957
      H1   -10.68875   -9.65100   14.12119
       H   -15.78871   -1.62367   11.26996
       O   -15.83996   -2.57823   10.98563
      H1   -16.76640   -2.79965   10.82833
       H   -15.17255    2.51265   16.53995
       O   -14.39786    3.05678   16.82475
      H1   -13.86045    3.20759   16.07651
       H   -17.24137   -8.14192   12.56810
       O   -17.01973   -8.02775   13.50072
      H1   -16.02868   -8.07015   13.54603
       H   -12.50596   -6.31326   10.44987
       O   -11.91164   -6.89745   10.93317
      H1   -11.41030   -7.40073   10.34238
       H   -10.54536   -6.38838   17.31009
       O    -9.70926   -6.40570   16.81531
      H1    -9.08630   -5.91657   17.33266
       H   -17.87714   -5.71818   14.73915
       O   -18.70672   -5.27789   14.51893
      H1   -18.61658   -5.12489   13.54203
       H   -15.47468    0.78767   12.29395
       O   -16.06274    0.04540   12.59154
      H1   -16.92169    0.28954   12.33218
       H   -19.83247   -1.76977   19.44877
       O   -19.47891   -2.63602   19.17267
      H1   -19.35870   -2.45916   18.20635
       H    -8.91436   -3.84531   12.36369
       O    -8.24909   -3.18609   12.61075
      H1    -7.99614   -2.79305   11.77991
       H    -8.60179   -7.60640   16.04845
       O    -7.75633   -8.13815   16.10641
      H1    -7.93389   -8.83528   15.49365
       H   -18.61766   -6.03781   18.45148
       O   -17.72386   -5.95325   18.06018
      H1   -17.49303   -5.06279   18.22033
       H   -15.99732   -0.13851   14.31456
       O   -15.92070   -0.24840   15.25034
      H1   -16.19747   -1.20182   15.34466
       H   -10.66367   -8.99802   18.92360
       O   -10.64308   -8.16772   19.35401
      H1    -9.68944   -7.99409   19.33619
       H    -7.54864   -8.82517   18.44295
       O    -7.84344   -9.22795   19.24169
      H1    -7.30886  -10.02469   19.16612
       H   -16.41544   -1.19840   18.63395
       O   -17.24913   -0.97053   19.06497
      H1   -17.70063   -1.77923   19.31285
       H   -16.43976    3.06954   18.97664
       O   -15.98341    2.50328   19.65825
      H1   -15.46063    1.90208   19.11846
       H   -12.23267   -7.00898   12.60407
       O   -12.28347   -7.20762   13.57042
      H1   -12.78799   -6.42237   13.87071
       H    -7.61486   -1.69103   18.27825
       O    -7.58257   -1.33325   17.39296
      H1    -6.61996   -1.27670   17.24564
       H   -18.98977   -3.95008   15.99863
       O   -19.36660   -3.19113   16.40576
      H1   -19.61484   -2.70833   15.63391
       H   -12.56871   -2.20364   10.87379
       O   -13.10829   -2.42794   10.13223
      H1   -14.00088   -2.65975   10.47194
       H   -13.88048    2.34637   12.84144
       O   -14.41072    2.26966   12.07417
      H1   -13.97957    1.81375   11.31584
       H   -15.26793    4.84289   17.76464
       O   -15.42617    5.31725   18.51204
      H1   -14.79441    4.96566   19.13401
       H   -15.63255   -8.18774   19.33042
       O   -16.58142   -7.98882   19.36402
      H1   -16.89968   -7.21570   18.78600
       H   -13.81769   -6.38902   17.31994
       O   -14.14924   -5.64626   16.82653
      H1   -14.99672   -5.89737   16.46842
       H   -16.74559   -6.99647   15.07944
       O   -16.41916   -6.34705   15.65325
      H1   -17.12552   -6.32911   16.35356
       H   -12.64138   -2.93263   13.97388
       O   -12.43412   -1.95879   13.88469
      H1   -11.77599   -1.88226   13.19966
       H   -12.81460   -0.69389   18.52936
       O   -12.48956   -1.62449   18.48848
      H1   -11.80121   -1.66170   17.81572
       H   -17.20940  -10.06180   16.47898
       O   -16.76210   -9.87740   17.33596
      H1   -17.16529   -9.07006   17.68961
       H   -16.15558   -2.79715   16.86748
       O   -16.80882   -2.63272   16.16746
      H1   -17.65912   -2.81651   16.57533
       H    -9.75634   -0.95996   15.25698
       O    -9.44559   -0.47638   14.42237
      H1    -9.61472    0.45159   14.42391
       H    -6.87626    2.08945   19.48131
       O    -7.83184    2.32739   19.50822
      H1    -8.15652    2.06890   18.62668
       H   -10.35060   -5.48329   13.43231
       O   -10.13897   -5.54149   12.48015
      H1   -10.83041   -6.03305   12.08247
       H   -19.37711   -1.77460   11.05804
       O   -18.69900   -2.19140   11.57608
      H1   -19.02457   -1.95420   12.47584
       H    -6.74204   -5.41114   14.46762
       O    -6.70364   -5.60243   15.35927
      H1    -6.84753   -6.54507   15.42141
       H   -10.32299   -5.27928   15.68051
       O   -10.36872   -4.52819   15.01321
      H1   -11.35435   -4.46663   14.96209
       H    -9.50146    0.98943   16.77217
       O    -8.56147    1.06688   17.01134
      H1    -8.26241    0.18063   17.29244
       H    -9.83901   -2.26098   12.08427
       O   -10.59374   -1.82896   11.76883
      H1   -10.30457   -0.93317   11.73928
       H   -17.29855  -11.12454   18.75333
       O   -17.57257  -11.27683   19.64435
      H1   -17.32473  -12.19446   19.80950
       H   -18.70676  -10.41847   14.19452
       O   -18.43516   -9.79196   14.89754
      H1   -18.02292   -9.15126   14.28140
       H   -18.78038    1.97243   18.30566
       O   -18.92304    1.12860   17.92754
      H1   -18.18007    0.62832   18.21573
       H   -18.24728    1.66295   16.43392
       O   -17.74897    1.91429   15.57722
      H1   -17.05469    1.19570   15.45428
       H   -14.54157   -4.19525   17.67787
       O   -14.86914   -3.51167   18.28672
      H1   -14.18154   -3.26292   18.89537
       H   -13.24980   -4.90642   15.51944
       O   -13.09134   -4.45466   14.66194
      H1   -14.00168   -4.19907   14.45734
       H   -19.58372    3.88353   18.85781
       O   -18.69703    3.76642   18.46313
      H1   -18.83954    4.18222   17.58580
       H   -11.48048    1.72337   17.18681
       O   -11.15655    1.22315   16.41243
      H1   -11.77269    0.50252   16.37337
       H   -14.47601   -9.43905   13.16312
       O   -14.38510   -8.80807   13.88474
      H1   -13.59217   -8.24941   13.72355

