180
frame 12 | Written by MDAnalysis XYZWriter (release 2.4.3)
       H    -1.81919   16.38827   -1.68091
       O    -2.40658   16.60758   -0.95102
      H1    -1.93632   17.11044   -0.25473
       H    -3.56295   15.36038    8.35873
       O    -3.69911   15.56290    7.42976
      H1    -2.81826   15.47815    7.03445
       H    -3.75881   15.42252   -4.87403
       O    -2.91839   15.04475   -5.18222
      H1    -2.83200   14.42441   -4.42818
       H    -4.74150   15.69593    3.05229
       O    -4.83949   16.18254    3.89713
      H1    -5.50669   16.82846    3.77628
       H     1.03153   15.06742   -2.25573
       O     1.87681   15.48878   -2.25032
      H1     1.75173   16.16793   -2.99014
       H    -5.45429   16.78546   -5.18939
       O    -5.31909   15.99087   -4.56654
      H1    -5.87993   15.35481   -5.03354
       H    -4.15810   13.15718    6.47471
       O    -3.75769   12.34782    6.12652
      H1    -4.51673   11.75192    6.18229
       H    -6.52952   17.36965    7.75387
       O    -6.15496   16.61724    8.22567
      H1    -5.51145   16.22040    7.60835
       H     2.14488   18.31780   -3.51215
       O     1.55181   17.72169   -4.05553
      H1     2.17411   17.11098   -4.60100
       H    -0.80851   18.72026   -0.08553
       O    -0.80335   18.30706    0.75274
      H1    -1.59580   18.78417    1.16493
       H   -10.15955   12.18797    3.36543
       O   -10.40587   12.89885    3.94580
      H1    -9.88865   13.57602    3.60328
       H     3.08857   14.71069    1.60268
       O     3.15054   14.67237    2.60780
      H1     3.90542   14.00208    2.76096
       H    -7.21499   18.06855   -2.29741
       O    -6.67682   18.59972   -1.68395
      H1    -7.37873   19.23102   -1.33446
       H    -9.44118   15.68562    0.05518
       O    -8.93074   16.40025    0.48039
      H1    -8.02008   16.16849    0.49772
       H    -2.79949   11.30652    1.51524
       O    -3.32821   11.08337    2.28972
      H1    -2.69274   10.82533    2.94252
       H     0.45378   12.52627    4.55547
       O     0.03347   12.29482    5.36647
      H1    -0.60666   11.62400    5.07304
       H    -3.93164   13.98297    2.07754
       O    -4.70145   14.55938    1.74005
      H1    -5.47763   14.03777    2.01471
       H    -4.17016   18.51488    1.74865
       O    -3.41150   19.12478    1.87177
      H1    -3.72213   19.86734    1.33658
       H   -12.57689   19.45989    3.30694
       O   -12.32206   18.79218    2.61426
      H1   -11.99949   19.41737    1.97496
       H    -7.92557   15.72730   -2.94334
       O    -7.60042   16.58669   -3.23574
      H1    -6.74383   16.39782   -3.55462
       H    -1.74522   16.23281   -4.48564
       O    -1.28757   16.94307   -3.99931
      H1    -0.36381   16.91468   -4.36697
       H    -8.95477   11.12142    1.15149
       O    -8.22024   11.27592    0.52920
      H1    -7.40539   10.98432    0.96125
       H    -5.31579   10.72856    1.84686
       O    -5.70937   10.13028    1.25372
      H1    -6.28477    9.57342    1.82449
       H    -3.97799   13.76083   -2.51697
       O    -3.13739   13.51180   -2.85705
      H1    -2.50943   14.09537   -2.45088
       H     1.07042   12.31339   -0.77121
       O     0.25605   12.39584   -0.24637
      H1     0.49805   12.87026    0.58946
       H    -4.27564   12.56988   -0.69644
       O    -4.77968   13.38152   -0.78333
      H1    -4.62026   13.78759    0.06612
       H    -2.17802   14.73584    4.82092
       O    -1.60480   14.69694    5.65165
      H1    -1.12419   13.83989    5.41000
       H   -10.98301   17.44773    7.86502
       O   -10.08047   17.53698    7.54943
      H1    -9.65922   18.03345    8.25891
       H    -0.46315   13.57314   -1.56218
       O    -0.54126   14.24600   -2.21458
      H1    -0.26354   13.82354   -3.07344
       H     1.00648   18.49417    0.98959
       O     1.82511   19.04943    1.31320
      H1     2.57411   18.56594    0.95094
       H    -3.32864   16.84952    4.18742
       O    -2.58496   17.48360    4.21174
      H1    -2.99567   18.20845    3.69149
       H    -4.42440   18.38066    8.97063
       O    -3.48479   18.30959    9.12204
      H1    -3.39127   19.17374    9.48625
       H    -9.74049   19.03084   -2.41927
       O   -10.33002   18.49496   -1.95954
      H1    -9.76172   17.83440   -1.60577
       H    -5.73867   18.49433    5.91455
       O    -6.54891   18.42939    6.39531
      H1    -7.20266   18.99245    5.97307
       H   -12.13551   15.49336    3.17592
       O   -11.95066   15.97786    4.04683
      H1   -11.87595   16.90075    3.68354
       H    -6.51274   13.47442    4.36888
       O    -6.77821   13.39677    3.46596
      H1    -7.32632   14.17191    3.30528
       H    -8.28834   14.10277   -1.39535
       O    -8.78840   14.27003   -2.20026
      H1    -8.47491   13.53119   -2.77913
       H    -9.05241   15.38593    4.44786
       O    -8.73368   15.30267    3.49932
      H1    -9.04979   16.05210    3.00966
       H    -4.82683   19.02288   -2.35687
       O    -3.86321   18.78890   -2.22777
      H1    -3.93016   18.02490   -1.69081
       H    -2.48180   10.32249   -0.50517
       O    -2.55717   11.30172   -0.47108
      H1    -1.69097   11.66754   -0.68870
       H    -7.36107   15.27562    8.44307
       O    -7.65022   14.35281    8.49270
      H1    -7.76993   14.29473    9.44091
       H    -9.44114   15.53292    6.86859
       O    -9.52518   15.04549    6.03627
      H1   -10.40915   15.24459    5.73888
       H    -0.44104   15.98166    6.18130
       O     0.25364   16.39092    6.76002
      H1     0.47069   17.18276    6.30551
       H     0.23940   18.47873    9.33824
       O    -0.02583   19.39024    9.37174
      H1    -0.33704   19.59370    8.48388
       H   -11.82162   14.77618   -0.89891
       O   -11.01277   14.38997   -0.40965
      H1   -10.41999   14.09496   -1.09942
       H    -3.14953   18.70306    7.36706
       O    -2.56610   19.14031    6.68227
      H1    -2.79194   18.59457    5.87769
       H    -2.74098   12.60359    3.01593
       O    -2.33700   13.47733    3.21575
      H1    -1.38261   13.35487    3.28029
       H    -2.54233   17.94220   -4.96233
       O    -2.89530   18.83906   -4.85664
      H1    -3.17146   18.75076   -3.99558
       H    -0.72556   18.49188   -2.35302
       O    -0.49189   19.27047   -1.87752
      H1     0.09856   19.81050   -2.39296
       H    -5.85669   17.61213    0.16190
       O    -5.39505   17.26286    0.93968
      H1    -5.14135   16.35839    0.60044
       H     0.35906   18.97829   -4.84652
       O    -0.13965   19.80404   -4.88947
      H1    -1.08720   19.60110   -4.88226
       H     1.08297   19.04855    2.92107
       O     0.64482   18.76634    3.73431
      H1     0.46567   17.82840    3.66423
       H    -6.76978   18.21021   -6.51024
       O    -5.79451   18.20060   -6.45526
      H1    -5.70223   18.80703   -5.72750
       H   -10.44754   18.53564    4.44976
       O   -10.20821   19.33706    4.89897
      H1    -9.95213   18.83207    5.68978
       H    -7.62935   13.08716    0.19093
       O    -7.23712   13.92321    0.06882
      H1    -6.29258   13.67785   -0.11120
       H    -2.66109   11.44429    5.04772
       O    -1.99540   10.86553    4.59375
      H1    -2.17843    9.95827    4.89004
       H     0.00319   14.29928    2.73677
       O     0.51368   13.46703    2.84803
      H1     1.41535   13.84631    2.81157
       H    -0.50058   16.54010    2.17770
       O    -0.24079   16.27195    3.06246
      H1    -1.00205   16.63639    3.59571
       H    -6.67213   18.15931    2.37840
       O    -6.99621   18.45655    3.24847
      H1    -7.49248   19.18871    2.89432
       H    -8.76220   17.40072   -4.91027
       O    -8.64835   17.83782   -5.80463
      H1    -9.56188   17.80254   -6.18664

