180
frame 7 | Written by MDAnalysis XYZWriter (release 2.4.3)
       H     5.78458   11.39781   14.82351
       O     6.29849   10.93749   14.11147
      H1     6.15840   11.48444   13.35810
       H     2.66638   12.19546   19.32166
       O     2.67595   12.75579   18.51141
      H1     3.31405   13.40416   18.76833
       H     3.91766    8.85500   15.42147
       O     2.97502    8.66343   15.53695
      H1     2.74944    7.99404   14.89353
       H    14.29665   10.13058   18.30592
       O    14.87072   10.67519   18.92086
      H1    15.71828   10.56406   18.47469
       H    12.12247   12.84711   11.73879
       O    11.54567   13.38794   11.21111
      H1    10.71880   13.33886   11.76277
       H     0.04740   15.96850   16.61447
       O     0.57580   15.66087   17.38072
      H1    -0.11662   15.36404   17.99841
       H    11.00349   15.45934   17.26381
       O    11.90805   15.03101   17.25064
      H1    12.52215   15.77017   17.45625
       H     8.16787   10.65138   16.75659
       O     7.61257   11.37230   17.11288
      H1     7.63598   11.36298   18.09876
       H     3.28060   17.36723   14.96010
       O     3.95197   17.29858   15.67552
      H1     4.47229   18.09422   15.46954
       H     2.78416   10.08637   14.49110
       O     2.70683   10.90571   13.97324
      H1     1.80656   11.20025   14.10856
       H     4.62373   10.45368   17.67272
       O     5.40862    9.90071   17.77793
      H1     6.04152   10.55668   17.51304
       H     2.93883   10.10561   11.90764
       O     3.50746   10.34260   11.17094
      H1     3.59679    9.50743   10.69698
       H    -0.97004   19.37599   19.10490
       O    -1.05457   18.66948   18.36163
      H1    -0.32468   18.19558   18.73453
       H    10.99657    8.16126   13.18707
       O    10.19008    8.30070   13.74615
      H1    10.07214    9.24187   13.55199
       H     6.90817   14.89698   18.69677
       O     7.33013   15.33540   19.46738
      H1     8.21447   14.94952   19.29722
       H     9.63902   18.78400   16.11873
       O     9.67372   18.06675   16.79505
      H1    10.60297   17.68533   16.73998
       H    10.46144   10.81188   19.31132
       O    11.33217   10.42336   19.18821
      H1    11.69810   10.87235   18.42758
       H    -1.13156   17.45543   14.56957
       O    -0.78469   16.70630   15.08926
      H1    -1.11659   15.96184   14.62152
       H    10.18342   18.90479   14.18921
       O    10.77492   18.48853   13.56675
      H1    11.48420   18.13200   14.06633
       H    -2.58854   11.15543   19.02515
       O    -2.41952   12.02107   18.60750
      H1    -1.89214   11.83473   17.78994
       H    13.71954    7.73218   18.09464
       O    13.74358    8.28607   17.27282
      H1    12.76965    8.55970   17.23023
       H     3.21344   16.88581   11.05090
       O     3.96388   17.38159   11.15916
      H1     4.68166   16.98099   10.57914
       H     0.92854   16.71081   14.40618
       O     1.65295   17.24314   14.00679
      H1     2.06932   16.57542   13.45594
       H     9.82769   10.39956   12.21511
       O    10.38016   10.94994   12.83029
      H1    11.29830   10.92589   12.51698
       H     9.79503   16.42602   11.63960
       O     9.20262   16.71370   12.38439
      H1     9.80489   17.36992   12.78575
       H    11.51348   14.22440   15.65032
       O    11.28958   14.17526   14.68648
      H1    10.46568   13.72430   14.64700
       H     0.17334   11.18294   15.62356
       O     0.14262   10.43323   15.06450
      H1    -0.33812    9.82498   15.59754
       H     8.20210   13.92897   12.33183
       O     9.00135   13.88191   12.92500
      H1     9.19504   14.82176   13.08462
       H    13.67463   17.68700   17.61003
       O    13.97906   16.92993   18.23872
      H1    14.92938   17.00592   18.14678
       H     8.82182    8.48085   15.52777
       O     8.85727    9.04238   16.31674
      H1     9.55245    8.55204   16.84990
       H     1.95109    8.05401   18.74706
       O     1.83031    8.91771   18.33568
      H1     1.94507    8.80533   17.35444
       H     2.00322   14.59753   11.48729
       O     1.51119   15.44516   11.50758
      H1     0.68059   15.08390   11.93716
       H     1.12278   17.05076   18.32937
       O     1.26753   17.57316   19.13393
      H1     1.72238   18.27596   18.65412
       H    12.08469   11.10185   15.44661
       O    11.59182   10.64722   16.16127
      H1    10.88587   10.32002   15.61938
       H     4.88522   15.19733   13.68027
       O     4.34757   15.43024   12.88099
      H1     4.71626   16.25203   12.57265
       H     4.67582   15.55824   18.75034
       O     4.86189   14.63612   18.49982
      H1     4.88947   14.78470   17.53435
       H     7.79626   17.13078   19.09211
       O     7.88327   18.03289   18.84704
      H1     8.39683   18.07057   18.03332
       H    10.09204   19.05068   10.15383
       O     9.19949   18.64938    9.84061
      H1     9.15752   17.82952   10.35172
       H    14.24423   13.95893   18.59056
       O    14.66461   13.52856   19.31952
      H1    14.72874   12.64056   18.96215
       H     8.89054   16.19577   16.43470
       O     9.18451   15.51348   17.05319
      H1     8.89941   14.68799   16.60800
       H     5.84919    8.95359   16.22316
       O     5.58101    8.55391   15.40795
      H1     5.84153    9.24221   14.75038
       H    16.45960   12.11994   15.38586
       O    16.34348   12.11970   16.33957
      H1    15.73793   12.90516   16.46606
       H     9.83821    6.86244   14.93558
       O     9.63332    6.27445   15.70660
      H1     8.74196    5.95119   15.49512
       H     5.11899   15.71266   15.68676
       O     5.23155   14.75378   15.78255
      H1     6.19716   14.51712   15.85790
       H     6.25017   18.82518   18.69382
       O     5.44758   19.22629   18.98923
      H1     4.77979   18.57199   18.85303
       H     2.41743   18.59758   16.37369
       O     1.99570   19.20143   17.02098
      H1     2.15780   20.07927   16.65840
       H    12.79426   18.86666   16.30051
       O    12.50195   17.99401   15.96820
      H1    13.26427   17.73790   15.45951
       H     7.02940   12.24576   10.31390
       O     6.87300   12.21017    9.35978
      H1     6.01687   12.61807    9.33358
       H     3.99872   11.80793   15.35408
       O     4.66063   12.00977   15.99676
      H1     4.71864   12.94812   15.85808
       H     1.20605   11.91067   17.66774
       O     0.25385   12.00722   17.47475
      H1     0.23946   12.95924   17.32082
       H    12.64105   13.04589   14.12004
       O    13.13910   12.19151   14.25703
      H1    13.70899   12.40780   15.06724
       H     7.55613   14.07371    9.48389
       O     8.05524   14.83289    9.81261
      H1     8.39350   15.19170    8.99332
       H     5.13400   15.51507    9.21030
       O     5.69115   16.30504    9.48294
      H1     6.51137   15.75388    9.54379
       H     5.42655   10.05792   11.44983
       O     6.40088   10.12483   11.49991
      H1     6.50222    9.97595   12.47955
       H    13.56269   14.31330   16.09315
       O    14.44809   14.17118   15.76732
      H1    14.43502   14.91269   15.15935
       H    14.58818   17.26048   13.42749
       O    14.54483   17.23743   14.37573
      H1    15.29902   17.73672   14.66265
       H     5.16059   12.36207   11.81610
       O     5.88368   12.98478   12.10867
      H1     5.35238   13.70626   12.41627
       H     6.48464    6.74537   15.82387
       O     6.73384    5.82198   15.68213
      H1     6.70612    5.45737   16.58322
       H     8.15241   13.42325   14.63032
       O     7.84258   13.72377   15.51768
      H1     7.90169   12.87810   15.96954
       H    10.96685    8.91891   18.43106
       O    11.02726    8.16328   17.82611
      H1    11.03402    7.42524   18.41923

