180
frame 11 | Written by MDAnalysis XYZWriter (release 2.4.3)
       H    -5.54239  -11.22056   20.04769
       O    -6.18361  -10.71531   19.44621
      H1    -5.89984  -11.32154   18.66877
       H    -0.72413  -13.93869   18.09152
       O    -0.33224  -13.33034   18.74376
      H1    -0.08454  -12.60090   18.08931
       H    -8.40884  -17.36556   13.19289
       O    -8.35085  -17.71964   14.09064
      H1    -7.37106  -17.74072   14.25244
       H   -10.43848  -10.30137    9.05161
       O   -10.47529  -10.76102    9.94003
      H1   -10.29176  -10.05609   10.52785
       H    -6.59610  -11.82136   13.56102
       O    -5.99596  -11.73974   14.27824
      H1    -5.97534  -10.77844   14.34476
       H    -6.14265   -8.37828   12.26611
       O    -6.68154   -7.88767   11.59457
      H1    -7.58674   -8.27850   11.54948
       H    -4.71550   -5.71541   17.10574
       O    -5.30177   -5.73328   16.36151
      H1    -5.36598   -4.75093   16.18438
       H    -5.28019  -11.54352   10.49398
       O    -6.02714  -11.91539   10.99061
      H1    -6.66998  -12.04909   10.28511
       H    -8.92037  -15.68017   16.79765
       O    -8.37505  -15.83490   17.63523
      H1    -8.15346  -14.93409   17.91422
       H   -13.08713  -11.13304   12.90189
       O   -13.61951  -10.49090   12.36466
      H1   -14.04490   -9.91213   13.00554
       H    -5.58408  -13.48374   11.62244
       O    -5.36559  -14.31783   12.12039
      H1    -5.75931  -14.95098   11.49660
       H   -11.74078   -4.15089   16.88151
       O   -12.15626   -3.36924   17.27334
      H1   -12.85937   -3.74718   17.91587
       H    -9.81515  -13.29450   19.52708
       O   -10.14194  -12.61979   18.97545
      H1   -10.62608  -12.01013   19.58652
       H    -9.08952  -10.25312   13.85331
       O    -8.86788   -9.69813   13.05396
      H1    -9.74620   -9.48922   12.66705
       H    -4.63920  -10.47910   13.22659
       O    -4.79097   -9.49234   13.19340
      H1    -3.92768   -9.16839   13.49409
       H    -1.84082   -8.32582   17.17518
       O    -2.71061   -8.40235   17.57286
      H1    -2.66259   -9.23635   18.06586
       H   -17.15438  -15.32034   16.73390
       O   -17.08214  -14.79469   15.91929
      H1   -16.11526  -14.64138   16.04277
       H    -2.90196  -11.84204   15.39307
       O    -2.35578  -12.37552   14.78437
      H1    -2.48742  -11.94666   13.95094
       H    -3.64335   -6.71434   18.92792
       O    -4.29123   -6.06652   19.01270
      H1    -4.94663   -6.65446   19.43236
       H    -5.74674   -8.97211   15.79814
       O    -6.07722   -8.47928   16.54465
      H1    -5.77529   -7.53141   16.29287
       H    -3.09053  -11.17518   17.33755
       O    -3.78121  -11.12307   16.63183
      H1    -4.54455  -11.63283   17.04096
       H    -5.57767  -13.04183   17.04039
       O    -6.08842  -12.39315   17.50943
      H1    -6.84960  -12.23732   16.94644
       H    -7.68603   -7.48511   16.24645
       O    -8.46474   -6.89819   16.18816
      H1    -8.89275   -7.03708   17.00331
       H   -15.15312  -11.45899   12.37822
       O   -15.89575  -12.06187   12.37477
      H1   -16.55279  -11.51709   12.84530
       H    -2.46233  -15.82695   17.89293
       O    -1.74551  -15.28349   17.51717
      H1    -2.08955  -15.17949   16.60878
       H   -14.34526   -9.74367   18.52390
       O   -14.17325  -10.64581   18.28415
      H1   -15.06827  -10.83201   18.05365
       H    -3.74943  -15.21144   15.30651
       O    -2.84416  -15.01740   14.91319
      H1    -2.73992  -14.04282   14.98897
       H   -10.72949  -15.94380    9.95174
       O   -10.74618  -16.43223   10.77482
      H1   -10.66936  -15.71994   11.40549
       H   -12.23421  -11.13634   15.41307
       O   -13.01095  -10.52499   15.66467
      H1   -13.09917  -10.66659   16.67345
       H   -12.66928   -6.99457   18.43474
       O   -11.87551   -6.56902   18.02096
      H1   -12.06076   -6.97233   17.17818
       H    -6.54949  -14.21392   13.91705
       O    -7.37991  -14.74053   14.15777
      H1    -7.52088  -15.22762   13.36975
       H   -10.61571   -7.61688   13.52164
       O   -10.47409   -6.86866   14.16198
      H1   -10.00485   -7.28908   14.92791
       H   -13.04242  -13.35431   13.45430
       O   -12.40677  -12.58075   13.51279
      H1   -11.95350  -12.85031   12.67583
       H   -14.96115  -15.24121   12.45954
       O   -14.34666  -14.53810   12.55769
      H1   -14.85969  -13.72371   12.54351
       H   -11.24640  -12.88066   17.46976
       O   -11.76075  -13.10991   16.70759
      H1   -11.34686  -13.90538   16.36433
       H   -15.33838   -5.79749   13.98212
       O   -14.62722   -6.36374   13.69852
      H1   -14.35113   -6.77988   14.49715
       H    -8.40135  -10.25854   17.81489
       O    -8.54951  -11.06887   17.30348
      H1    -8.92638  -11.61082   17.97697
       H    -2.09593  -11.20700   19.43618
       O    -2.47059  -11.99036   18.99261
      H1    -1.67557  -12.55652   19.00574
       H    -6.89605  -14.57795   19.82464
       O    -7.34727  -13.75038   19.66403
      H1    -6.80859  -13.42970   18.88807
       H   -12.15814   -7.52191   14.84641
       O   -12.79390   -7.66996   15.49719
      H1   -12.98776   -8.60444   15.59731
       H   -11.48906   -8.13039   11.23479
       O   -11.19872   -8.64632   12.08335
      H1   -11.90132   -9.36764   12.01524
       H    -1.35763   -9.11028   13.76278
       O    -2.23213   -8.67585   13.83156
      H1    -2.20724   -8.41461   14.75153
       H    -7.10913  -18.24989   16.95576
       O    -7.27498  -19.09984   17.44353
      H1    -7.82296  -18.77954   18.20315
       H   -14.87177  -16.15859   18.78680
       O   -15.72204  -16.24160   18.38173
      H1   -15.49112  -16.94365   17.73475
       H   -14.80700  -11.04833   15.93136
       O   -15.67679  -11.37741   16.20235
      H1   -15.65656  -12.36973   16.08185
       H    -6.53944   -8.86585   19.79060
       O    -6.53260   -7.93679   19.41377
      H1    -6.10294   -8.11428   18.54438
       H    -9.07095  -15.00543   15.22952
       O   -10.00178  -15.32431   15.38913
      H1   -10.15826  -16.15419   14.91718
       H   -14.26447  -14.38564   14.79843
       O   -14.61691  -13.98179   15.64749
      H1   -13.80565  -13.69918   16.11972
       H    -9.57833  -10.97940   15.95798
       O    -9.85825  -11.03636   15.02679
      H1   -10.07647  -11.98813   14.97952
       H   -12.03883  -13.59656   10.72188
       O   -11.26479  -13.37348   11.31021
      H1   -10.92938  -12.66544   10.71096
       H    -5.51006  -18.29816   13.55088
       O    -5.58916  -17.55413   14.11669
      H1    -5.03060  -17.84080   14.86706
       H    -2.92314  -16.82084   19.65316
       O    -3.66684  -16.80230   18.98325
      H1    -4.39236  -16.40794   19.48018
       H    -8.91738  -17.41459   19.15451
       O    -8.46239  -18.12804   19.59089
      H1    -9.19724  -18.72546   19.86708
       H    -8.26058   -7.90172   19.26688
       O    -9.07120   -8.01641   18.78177
      H1    -9.63761   -8.45523   19.40358
       H    -3.44729  -18.09167   16.89223
       O    -4.16005  -18.43264   16.32770
      H1    -3.93778  -19.37748   16.23580
       H    -5.78486  -15.19420   15.69472
       O    -5.21969  -15.00257   16.49450
      H1    -4.87364  -15.91038   16.68481
       H   -16.38997   -6.69197   17.58434
       O   -15.65371   -6.31177   17.10454
      H1   -14.96107   -6.97940   17.30631
       H    -9.04196   -5.51586   13.88114
       O    -8.33276   -4.84987   13.99081
      H1    -7.79038   -5.22118   14.68670
       H    -8.42823   -4.65000   17.80618
       O    -8.47611   -4.84755   18.76617
      H1    -8.42029   -5.81389   18.71720
       H    -3.68825   -5.71555   14.79730
       O    -2.78078   -5.40642   14.67774
      H1    -2.87399   -4.50962   14.48749

