180
frame 12 | Written by MDAnalysis XYZWriter (release 2.4.3)
       H   -18.67999   -9.58120   17.00692
       O   -18.37190   -9.77325   16.10930
      H1   -17.70157  -10.54343   16.26437
       H   -18.03345  -16.22053    7.73076
       O   -18.47315  -15.65574    7.04585
      H1   -17.70584  -15.12928    6.75667
       H   -10.26176  -10.31501    9.14600
       O   -10.67691  -10.46230   10.01184
      H1   -10.53736   -9.50773   10.35659
       H   -15.77566  -11.58036    9.81013
       O   -15.13863  -11.22540   10.41972
      H1   -15.60990  -11.16894   11.26329
       H   -12.51894  -11.03660   12.91800
       O   -12.89952  -10.18982   12.65429
      H1   -13.21752   -9.94764   13.55596
       H    -7.63565   -9.76914   13.01009
       O    -8.39640   -9.97357   12.42184
      H1    -9.11062   -9.99562   13.11485
       H   -17.84417  -15.36328   16.52777
       O   -17.23401  -14.88283   15.92589
      H1   -16.40703  -14.74709   16.45068
       H   -15.50871  -18.74004   15.72602
       O   -15.51487  -18.43706   16.63708
      H1   -14.70435  -18.88884   17.04502
       H   -16.63488  -13.76348    8.30786
       O   -16.92875  -12.86240    8.64842
      H1   -16.87063  -12.35716    7.85212
       H   -14.41483  -13.02389   10.39950
       O   -13.93749  -13.84842   10.29741
      H1   -14.58800  -14.42918   10.74786
       H   -18.51838   -6.94484   10.53032
       O   -17.91397   -6.55194   11.17400
      H1   -17.97186   -6.98349   12.04942
       H   -16.68258  -10.31279    5.91204
       O   -17.27025  -11.04015    6.29741
      H1   -17.62696  -10.41150    6.96106
       H   -13.08973   -6.12541   10.27766
       O   -12.71210   -6.97761   10.28297
      H1   -13.48593   -7.55047   10.13288
       H   -14.63560  -18.67048   13.49018
       O   -15.57267  -18.29637   13.54346
      H1   -15.40433  -17.32086   13.34863
       H   -15.12809  -15.13289    8.73139
       O   -15.87523  -15.38742    8.14081
      H1   -15.51735  -16.17138    7.68735
       H   -18.26691   -9.92618    9.15923
       O   -18.32535   -9.48728    8.28599
      H1   -19.07510   -8.91721    8.42749
       H   -17.83712  -11.88576   10.50229
       O   -18.00449  -10.93061   10.75389
      H1   -18.39665  -11.04163   11.71837
       H   -18.47287  -14.11632   14.80895
       O   -19.36650  -13.75818   14.55297
      H1   -19.90444  -14.57500   14.57655
       H   -15.45560  -10.66305   13.30559
       O   -16.00126  -11.51615   13.10853
      H1   -16.89088  -11.17077   13.10471
       H   -17.83117   -5.24599   14.18298
       O   -17.01210   -4.73278   13.93649
      H1   -17.24337   -3.84696   14.26420
       H   -14.64997   -9.08463   18.54107
       O   -14.70750  -10.01976   18.49937
      H1   -15.63815  -10.14037   18.44885
       H   -15.34324   -4.42147   19.12849
       O   -14.79088   -3.96881   18.43856
      H1   -14.98709   -4.67962   17.79410
       H   -16.11213   -8.54517    9.88507
       O   -15.11239   -8.53708   10.02706
      H1   -14.93778   -9.47337    9.74264
       H   -16.04118   -6.88454    7.28606
       O   -16.23686   -5.97431    7.21378
      H1   -15.96607   -5.52467    8.05248
       H   -10.80526  -15.99250    9.64614
       O   -11.26373  -16.04018   10.49708
      H1   -11.14044  -15.10244   10.74753
       H   -18.58320   -7.83328   14.70286
       O   -18.21551   -7.62127   13.85429
      H1   -17.52929   -8.30019   13.71172
       H   -13.29174  -11.19635   16.00318
       O   -13.87830  -10.47639   15.86573
      H1   -14.15463  -10.34712   16.78456
       H   -12.72543   -6.41079   19.01606
       O   -12.29809   -5.95780   18.25552
      H1   -12.43630   -6.59600   17.51632
       H   -17.89932  -18.78358    8.00707
       O   -17.55423  -18.19065    8.68855
      H1   -18.36072  -17.98219    9.10246
       H   -10.91102   -7.58298   13.35868
       O   -10.87321   -7.00362   14.17528
      H1   -10.32253   -7.52624   14.75041
       H   -15.48249  -16.51997   11.37310
       O   -15.59804  -15.68220   11.86305
      H1   -16.56410  -15.42697   11.79582
       H   -19.87175  -13.45980    9.64737
       O   -19.62728  -13.10797    8.83850
      H1   -18.63230  -13.27258    8.85290
       H   -12.57437  -13.28638   13.46961
       O   -11.81820  -12.63066   13.25474
      H1   -11.24968  -13.06250   12.61707
       H   -14.71265  -14.30540   13.04917
       O   -14.45139  -13.59339   13.63956
      H1   -15.19206  -12.95602   13.42507
       H   -15.08976   -8.71827    6.14506
       O   -16.05668   -8.56511    6.04649
      H1   -16.08095   -8.20788    5.11294
       H   -11.20098  -13.33601   17.15000
       O   -11.68094  -13.58499   16.39762
      H1   -11.11904  -13.83094   15.69584
       H   -15.42443   -5.59689   13.94184
       O   -14.59893   -6.11533   13.95902
      H1   -14.57263   -6.37564   14.94840
       H   -18.28959  -16.16442   14.76458
       O   -18.76350  -16.31839   13.93242
      H1   -19.48738  -16.97351   14.25088
       H   -12.37621   -7.64527   15.24871
       O   -12.83449   -7.73080   16.16284
      H1   -12.97152   -8.70061   16.14432
       H   -11.41078   -7.92709   11.21718
       O   -10.95650   -8.43566   11.91842
      H1   -11.60765   -9.09148   12.06583
       H   -11.62761  -11.55174    5.70751
       O   -12.38100  -11.41238    6.32488
      H1   -13.05524  -11.89922    5.79757
       H   -11.13482   -5.83789    8.08535
       O   -10.60428   -5.86271    8.91948
      H1   -11.18600   -6.34663    9.56095
       H   -14.97195  -16.44755   18.77790
       O   -15.91417  -16.23680   18.46265
      H1   -15.78962  -16.62066   17.55543
       H   -16.17231  -11.92483   16.11189
       O   -16.83551  -11.85527   16.85211
      H1   -16.79468  -12.74150   17.19830
       H   -16.56106   -3.75271   11.50148
       O   -17.21234   -3.95534   10.83728
      H1   -17.40642   -4.89321   11.08016
       H   -14.55916  -14.00406   15.48959
       O   -14.47910  -14.02977   16.46572
      H1   -13.51218  -13.94365   16.71067
       H   -10.07261  -10.87230   15.79679
       O   -10.31722  -10.64944   14.88893
      H1   -10.62280  -11.44126   14.43697
       H   -17.19344   -8.44732   18.08581
       O   -16.53850   -7.88575   18.48987
      H1   -16.88619   -7.87335   19.38112
       H   -19.26730   -8.77867   19.44496
       O   -19.09743   -8.85775   18.49399
      H1   -19.02817   -7.88627   18.16578
       H   -18.60773  -15.74506   12.23941
       O   -18.38621  -15.38013   11.35990
      H1   -18.60519  -16.01908   10.70696
       H   -17.68149  -13.62625    4.48353
       O   -16.94466  -13.64340    5.19754
      H1   -17.00870  -12.76402    5.60536
       H   -12.90980   -8.21719    6.41998
       O   -13.33117   -8.96251    5.98205
      H1   -12.94783   -9.69861    6.50115
       H   -11.86053  -13.31922   10.20610
       O   -10.91228  -13.18843   10.33051
      H1   -10.86661  -12.25449   10.60467
       H   -18.98748  -12.06604   13.88852
       O   -18.92397  -11.18368   13.53649
      H1   -19.04049  -10.57890   14.31127
       H   -13.56409  -17.52117   11.52175
       O   -13.70670  -17.45217   10.51270
      H1   -13.02095  -16.78334   10.34174
       H   -14.48616   -4.23906    9.88231
       O   -15.13517   -4.36604    9.15585
      H1   -15.93650   -4.07266    9.59486
       H   -12.85342   -3.63012   13.88773
       O   -12.86165   -4.10551   13.02289
      H1   -13.40898   -4.83191   13.36254
       H   -16.55765   -5.68652   16.58703
       O   -15.67742   -6.02668   16.78954
      H1   -16.02575   -6.60666   17.51325
       H   -19.76880   -3.73851   13.33140
       O   -19.76086   -2.85502   13.71890
      H1   -18.99331   -2.45575   13.21908
       H   -14.92715   -8.03528   13.28098
       O   -15.53568   -8.66647   12.80731
      H1   -15.20958   -8.79357   11.89646

