180
frame 12 | Written by MDAnalysis XYZWriter (release 2.4.3)
       H     6.77218    2.64793   16.72453
       O     6.93927    3.64111   16.92275
      H1     6.04770    3.91835   17.21777
       H     8.45716    9.34397   12.97070
       O     7.75668    9.07173   12.38082
      H1     7.85814    8.15940   12.24290
       H    12.39295    7.55332    6.84751
       O    13.34266    7.47002    6.64754
      H1    13.42908    8.15359    5.91282
       H     2.69955    7.99885   14.40894
       O     1.93271    7.53586   14.80674
      H1     1.85967    6.71669   14.37118
       H    12.63922    8.42636   17.01932
       O    12.77591    9.36536   16.93467
      H1    13.72754    9.45428   17.12273
       H    12.43985   13.02862   11.10994
       O    11.53038   13.17802   11.00874
      H1    11.14317   12.62277   11.65333
       H    10.93800   10.10891    9.51678
       O    10.46838    9.26487    9.65495
      H1     9.54830    9.45493    9.42658
       H    14.47294    8.30267    9.61792
       O    15.10051    8.53791    8.88606
      H1    14.50924    8.43239    8.07152
       H     9.55723    5.63018    9.60702
       O    10.03847    5.03890    9.00574
      H1     9.29207    4.70403    8.52932
       H     9.82506    0.87944   11.26080
       O     9.63411    1.68279   11.76547
      H1    10.41944    1.75656   12.37135
       H     8.35586   10.93980   16.54614
       O     8.48036   11.64017   17.20399
      H1     8.17160   11.23344   18.03227
       H     2.67938   12.61532   12.71277
       O     3.01095   11.98602   13.39390
      H1     2.10052   11.63802   13.60995
       H     3.95788   13.27594   17.05312
       O     4.70967   12.66685   17.07821
      H1     5.15295   12.94836   16.17730
       H     5.73496    5.15499    9.72210
       O     6.46514    4.85052    9.16351
      H1     6.02539    4.65699    8.37771
       H     4.96016   12.63638    9.68954
       O     5.47427   12.68589   10.50501
      H1     5.29962   11.83122   10.91832
       H     4.95881    9.42838   10.31093
       O     5.41163    9.98261   10.95747
      H1     6.08418    9.36155   11.39688
       H     2.29175    3.72333    8.52940
       O     3.24821    3.69320    8.56768
      H1     3.35017    4.18883    9.36965
       H    10.44512    4.62144   12.80577
       O     9.60486    4.87144   13.23436
      H1     9.89911    5.50811   13.91693
       H    14.71222    8.16161   13.35523
       O    14.52163    7.28290   13.45228
      H1    13.98873    7.17600   12.65828
       H     5.80806    5.78887   12.37214
       O     5.60901    6.28653   11.57225
      H1     4.72122    5.92963   11.45516
       H     3.04056    4.65770   11.87914
       O     3.84808    4.28855   11.48934
      H1     4.05675    3.55926   12.07644
       H    10.19475    7.60271   15.54430
       O    11.00097    7.61772   15.01788
      H1    11.22249    8.49755   14.94804
       H     9.41354   10.95728   14.01360
       O     9.55395   10.45330   14.86176
      H1    10.36250   10.94639   15.09469
       H    13.93387    7.07917   15.34868
       O    13.48015    6.64821   16.15102
      H1    12.58997    6.80721   15.78553
       H    13.31088   11.46726   13.04949
       O    13.67445   10.89211   12.29859
      H1    13.86616   11.58582   11.64574
       H     9.02799    5.89733   11.64365
       O     8.81704    6.65556   11.02883
      H1     9.67028    7.07976   10.89702
       H    10.49459    8.78636    7.30307
       O    10.54137    7.98322    6.72148
      H1     9.88292    7.36052    7.08573
       H     3.23208    4.05751   16.49942
       O     3.56141    4.40229   15.65482
      H1     3.56255    3.55303   15.16185
       H    12.26576    8.80389   10.42551
       O    13.01645    8.60281   11.00121
      H1    13.28169    9.48400   11.33596
       H     8.38173   14.33964   13.40384
       O     8.67816   15.21518   13.81714
      H1     8.67937   15.79531   12.98620
       H    12.84231    3.63546   13.31408
       O    12.23469    4.04339   12.69436
      H1    12.19457    3.54480   11.88078
       H     5.50420    9.29701    7.95824
       O     4.60792    9.39615    8.27250
      H1     4.41804   10.29549    8.18650
       H     5.79362    7.25188   17.10121
       O     6.44285    6.75129   17.68833
      H1     7.19037    6.62831   17.01366
       H     9.00155    5.61449    5.82372
       O     9.43195    4.74129    5.57842
      H1    10.37960    4.78564    5.68204
       H     3.15066    7.44591   18.34921
       O     3.49742    7.90133   17.61212
      H1     2.82879    7.77140   16.93093
       H    11.30347   10.95776   17.54446
       O    11.33778   11.83175   17.89611
      H1    10.41546   12.07424   17.78722
       H     3.00055   14.81187   11.62839
       O     3.06559   13.92647   11.34080
      H1     4.01456   13.82888   11.06744
       H    10.56689   11.45039    7.17539
       O     9.88234   11.63795    6.49323
      H1     9.10352   11.28680    6.86386
       H    12.31590    2.06848   10.61946
       O    12.14347    2.92858   10.17185
      H1    11.26637    2.74936    9.73823
       H     3.46687   10.32596   13.70086
       O     3.66681    9.36347   13.62257
      H1     4.18632    9.45866   12.81252
       H     9.21294    3.64340   14.52708
       O     9.00752    2.86415   15.11591
      H1     9.29197    3.18666   15.95292
       H     0.46417    7.52834    9.62375
       O     1.02230    8.08260    9.01210
      H1     1.84508    7.56845    9.06668
       H     4.12067    6.85887   10.10455
       O     3.28302    6.60832    9.65703
      H1     3.44678    6.75651    8.73074
       H     6.33799   11.87829    6.59242
       O     7.02359   12.21919    7.18879
      H1     6.78846   13.14733    7.13157
       H     4.55148   12.75959   14.12094
       O     5.50585   12.86731   14.39878
      H1     5.66125   13.80968   14.26464
       H     7.31582    7.76428    5.84852
       O     8.02960    7.45421    5.20460
      H1     7.51183    7.17033    4.42414
       H     0.83554    5.44259   13.20197
       O     1.83319    5.27485   13.11673
      H1     2.06391    4.97741   13.99721
       H    11.53733   12.96110   14.89606
       O    12.02205   12.11521   14.85974
      H1    12.97507   12.36216   15.02833
       H     7.18965    8.38128    8.62214
       O     6.93146    7.74531    7.91506
      H1     7.04942    6.85706    8.34638
       H     5.98477    2.91978   13.09196
       O     5.55701    2.15838   12.70816
      H1     6.07262    2.03005   11.90536
       H     7.11356   13.49516   10.34630
       O     8.09248   13.71259   10.43092
      H1     8.29145   14.02497    9.53386
       H     7.84996   11.11834    8.92503
       O     7.87241   10.20063    9.18476
      H1     7.47792   10.22556   10.06349
       H     7.94884    2.54228   11.17162
       O     7.19521    2.43301   10.57857
      H1     6.98751    3.31637   10.20418
       H     7.75315   13.15101   12.20820
       O     7.95848   12.83745   13.07388
      H1     7.14457   12.46723   13.42742
       H     2.05957    8.96901   12.54701
       O     1.24403    8.74574   12.11003
      H1     1.53602    8.81842   11.16300
       H     5.84086    4.18858   14.58707
       O     6.65916    4.24590   14.06461
      H1     7.29903    4.12266   14.75712
       H    11.40956   12.15250    8.90168
       O    11.74183   11.28309    8.47828
      H1    12.68526   11.28810    8.74316
       H     8.16113   14.41889   15.59345
       O     8.01978   14.31438   16.53817
      H1     7.83979   13.34870   16.61172
       H     9.14217    8.47224   17.95086
       O     9.12925    7.90686   17.15552
      H1     9.46596    7.09245   17.57889
       H     9.39405    1.28048    8.48214
       O     9.84607    2.11647    8.74290
      H1     9.30648    2.35872    9.50902

