180
frame 9 | Written by MDAnalysis XYZWriter (release 2.4.3)
       H    -1.14694   -8.53768  -13.84995
       O    -1.05116   -8.07420  -13.03962
      H1    -0.89491   -8.81112  -12.42852
       H    12.08837  -12.69099  -13.46348
       O    12.20702  -12.02757  -14.13266
      H1    13.08861  -11.61948  -13.92729
       H     8.58176   -6.68425  -19.55996
       O     9.31735   -7.32744  -19.76620
      H1     9.15488   -8.06135  -19.14465
       H    -2.51135  -12.25653  -17.91720
       O    -2.20941  -11.97642  -17.01260
      H1    -2.15233  -12.85301  -16.59415
       H     4.39394  -19.18274  -15.77216
       O     5.06206  -19.85999  -15.51614
      H1     5.85794  -19.35576  -15.54845
       H     7.01903  -10.13685  -18.30736
       O     6.11662  -10.47515  -18.14163
      H1     5.95172  -10.87906  -19.00722
       H     5.17531  -15.66434  -13.22290
       O     4.85771  -16.56265  -13.28584
      H1     4.73368  -16.76260  -12.37889
       H     2.46808  -14.51836  -10.88181
       O     2.27747  -13.55114  -11.04741
      H1     2.17984  -13.45413  -12.03152
       H     1.78962  -13.30744  -16.87761
       O     2.73278  -12.95854  -16.74984
      H1     3.14470  -13.70543  -17.19150
       H    -1.57716  -14.84028  -16.53053
       O    -2.20793  -14.61956  -15.82496
      H1    -3.06301  -14.80760  -16.18601
       H     7.48955  -17.71099  -14.17341
       O     7.11549  -17.99411  -15.04081
      H1     7.86262  -18.47219  -15.46843
       H    10.11750  -11.02980  -10.48471
       O    11.00642  -11.45848  -10.49934
      H1    10.83330  -12.21342  -11.05505
       H     3.70607   -7.02902  -17.80677
       O     4.02110   -7.90598  -17.51142
      H1     4.98539   -7.69421  -17.49459
       H    10.87950   -9.88012  -16.92970
       O    10.47378   -9.92658  -16.07334
      H1    10.74531  -10.85856  -15.95363
       H     9.56066  -17.02828  -13.14288
       O     8.67616  -16.81552  -12.80872
      H1     8.55061  -15.90981  -13.17437
       H     9.09157  -10.23482  -18.77085
       O     8.63375   -9.63018  -18.19587
      H1     8.90401   -9.88861  -17.25384
       H     3.24805   -5.89336  -15.13424
       O     4.08574   -6.37102  -15.04679
      H1     4.16888   -6.83243  -15.86414
       H     7.91999  -10.29725  -13.51894
       O     8.01362   -9.74290  -14.32409
      H1     8.97269   -9.52975  -14.41602
       H     2.71113   -8.51832  -10.00595
       O     2.75456   -9.45977   -9.74287
      H1     3.55280   -9.76117  -10.10913
       H     6.18147  -15.05328   -8.85784
       O     5.73053  -15.37282   -9.67211
      H1     6.04703  -16.26703   -9.77825
       H     7.68651   -7.62184  -15.05954
       O     7.30728   -6.71106  -15.09729
      H1     7.07770   -6.49282  -14.19133
       H     8.23652  -11.27310  -15.09637
       O     8.44983  -12.02432  -15.69993
      H1     7.51631  -12.18421  -16.01199
       H    -1.81896  -14.33687  -13.55736
       O    -1.38046  -13.68131  -13.04869
      H1    -1.34534  -14.02582  -12.14493
       H     2.97456   -8.47294  -15.59210
       O     2.14654   -8.54426  -15.15677
      H1     1.96988   -7.57314  -15.09913
       H    10.30305   -4.41825  -14.99246
       O     9.42674   -4.41843  -14.54148
      H1     9.06595   -5.18608  -14.93815
       H     2.12810  -17.21173  -17.47772
       O     1.52080  -16.90090  -18.15039
      H1     2.08585  -16.71012  -18.90007
       H     9.25822   -8.60683   -9.65088
       O     8.67700   -9.25948  -10.03419
      H1     8.15330   -8.69768  -10.63011
       H     4.85424  -14.66733  -18.99031
       O     4.89196  -13.73511  -18.72585
      H1     5.30704  -13.74528  -17.87271
       H     2.45597  -17.06309  -15.42748
       O     3.00686  -17.58307  -15.99563
      H1     3.85262  -17.05869  -16.14236
       H     2.14945   -5.43309  -17.81053
       O     3.12532   -5.51800  -17.82474
      H1     3.09173   -5.38987  -18.77227
       H     6.08610   -8.00485  -12.35202
       O     7.05403   -8.08209  -12.33060
      H1     7.25003   -8.76180  -13.02243
       H    -0.71992  -10.80279  -16.52802
       O    -0.57431  -10.20372  -15.77448
      H1     0.06473   -9.65226  -16.19561
       H     1.15405  -15.27979  -14.38685
       O     1.33351  -16.22084  -14.11928
      H1     2.08934  -16.04726  -13.51533
       H     8.73196  -13.19938  -14.36550
       O     8.67764  -13.80385  -13.59345
      H1     7.82382  -13.44509  -13.26361
       H     5.34006  -11.81168  -16.62138
       O     5.53295  -12.65097  -16.22744
      H1     4.63516  -12.97045  -16.09985
       H     8.39860   -7.01791  -11.69934
       O     9.23048   -6.55649  -11.54444
      H1     9.84026   -6.94319  -12.20185
       H     8.48326  -14.95276  -16.26301
       O     7.72461  -15.49690  -16.57827
      H1     7.69153  -16.22764  -15.88878
       H     7.01007   -5.51433  -18.83058
       O     7.64450   -5.44905  -19.58169
      H1     8.20846   -4.73178  -19.21929
       H     0.72501  -15.36522  -17.70715
       O     0.40365  -14.47724  -17.36957
      H1     0.28212  -13.98219  -18.22219
       H     5.61158  -14.42106  -11.30357
       O     6.05206  -14.08239  -12.13156
      H1     5.37130  -13.41283  -12.46150
       H     0.17964  -13.61158  -13.77746
       O     0.87391  -13.57076  -14.41838
      H1     1.33006  -12.73554  -14.23755
       H     5.25527   -6.04827  -13.26437
       O     5.99219   -5.46836  -12.90563
      H1     5.83557   -4.70215  -13.45395
       H     7.17304  -11.10085  -11.44522
       O     7.56783  -11.34987  -12.30776
      H1     8.33510  -11.83856  -12.04944
       H     6.49030   -6.09317  -16.44909
       O     5.85186   -5.92546  -17.19218
      H1     5.07207   -5.45640  -16.83058
       H     7.90984  -17.50417  -18.55854
       O     8.72080  -16.96568  -18.65637
      H1     8.61314  -16.29369  -17.98983
       H     1.70562  -10.29332  -14.35321
       O     1.69200  -10.97130  -13.62477
      H1     0.93105  -10.59308  -13.16416
       H     5.92421  -18.77214  -19.39438
       O     6.29450  -18.42595  -18.58755
      H1     6.42248  -19.29540  -18.16647
       H    10.37063  -14.05720  -12.57360
       O    11.21260  -13.83441  -12.20628
      H1    11.53991  -14.73647  -11.87139
       H     4.47783   -8.35291   -8.29605
       O     5.25424   -8.02723   -8.78348
      H1     5.55025   -8.71544   -9.49280
       H    -2.63347   -9.97447  -17.72738
       O    -2.41759   -9.22741  -18.31705
      H1    -1.49819   -9.44028  -18.52121
       H     3.69002  -16.12204  -10.12656
       O     3.15770  -16.16199  -10.91339
      H1     2.44701  -16.83492  -10.57659
       H     4.10992   -7.65920  -14.07046
       O     4.34304   -8.30348  -13.35892
      H1     3.40779   -8.69512  -13.26840
       H     3.22777  -11.19289  -17.56820
       O     2.84321  -10.47613  -18.09040
      H1     3.43463   -9.73515  -17.73653
       H    -2.02239   -9.36148  -15.55524
       O    -2.75850   -8.78371  -15.35119
      H1    -2.77739   -8.08950  -16.01419
       H     9.13826  -14.14194  -10.76680
       O     8.55108  -13.37154  -10.74653
      H1     7.65363  -13.80254  -10.85734
       H     5.82094  -16.09407  -16.53557
       O     5.02084  -16.16819  -17.01669
      H1     5.08783  -16.97386  -17.51439
       H     0.52903   -6.20034  -15.92119
       O     1.30037   -5.96608  -15.35345
      H1     1.01377   -6.04546  -14.44813
       H     3.90134  -12.49577  -11.62743
       O     4.17038  -11.92007  -12.40152
      H1     3.28913  -11.76798  -12.80019
       H     6.26967  -12.67090   -9.01128
       O     5.46858  -12.36144   -9.48708
      H1     4.97811  -11.96308   -8.75301
       H     4.90671  -10.51569  -11.45991
       O     5.26939  -10.12218  -10.65280
      H1     5.46550  -10.86727  -10.08899

