180
frame 1 | Written by MDAnalysis XYZWriter (release 2.4.3)
       H    -0.75759    2.23725   12.28588
       O    -1.25014    2.96042   12.72371
      H1    -1.02592    3.78933   12.32566
       H    -5.49474   -9.94149   19.04875
       O    -6.07305  -10.64853   18.71801
      H1    -5.52640  -11.47313   18.82918
       H    -5.31940    5.02210   16.68528
       O    -5.25505    5.38606   17.62319
      H1    -4.37154    5.15602   17.89411
       H    -2.29154    4.07743   18.60896
       O    -2.03257    4.35775   17.74207
      H1    -1.25779    3.82356   17.64769
       H    -1.11106   -8.58534   15.63685
       O    -1.48377   -7.64774   15.81661
      H1    -0.77739   -7.09760   15.36340
       H    -4.07212   -3.72568   10.38083
       O    -4.90954   -3.67323    9.88813
      H1    -4.75032   -4.16170    9.04540
       H     0.29176    3.07134   16.19155
       O    -0.29409    2.39208   16.58231
      H1    -0.74621    1.99771   15.85607
       H   -10.98007   -2.86353   16.18008
       O   -11.28475   -1.96488   16.38501
      H1   -10.54792   -1.35498   16.40068
       H     2.75551   -1.89272   14.67611
       O     3.52329   -1.43421   15.07001
      H1     3.08289   -1.33489   15.96992
       H    -2.70526    0.43807   16.71000
       O    -1.92668   -0.09599   16.91138
      H1    -1.77871    0.10809   17.86339
       H    -6.72942   -5.47682   16.48427
       O    -6.37151   -4.67355   16.05802
      H1    -7.13174   -4.42404   15.53837
       H     1.32868   -0.76770   17.42440
       O     1.22479   -1.52575   16.83891
      H1     0.97374   -2.16897   17.56004
       H    -2.60850   -4.52103   11.65218
       O    -2.39609   -3.97922   10.84076
      H1    -1.84891   -4.57596   10.28725
       H    -6.53341   -4.21641   12.64595
       O    -6.67323   -3.33138   12.22005
      H1    -6.21268   -3.27536   11.41133
       H    -3.07271   -8.75039   15.92609
       O    -3.71003   -9.47401   15.74641
      H1    -4.49031   -9.07963   16.18498
       H    -4.06697    3.05271   13.29953
       O    -4.04694    2.10387   13.60514
      H1    -3.11081    1.90125   13.33492
       H    -7.34429   -4.82854   18.85322
       O    -6.45483   -4.68931   19.16318
      H1    -6.57641   -5.03608   20.07181
       H     1.13062   -6.47126   17.39149
       O     2.02060   -6.84033   17.27074
      H1     1.90598   -7.52154   16.52294
       H    -9.52985   -1.42114   19.24426
       O   -10.15062   -2.18597   19.43530
      H1   -10.56283   -2.40223   18.57226
       H    -8.82261    2.40085   13.97435
       O    -8.01307    2.77989   13.57942
      H1    -7.40752    2.10905   14.00865
       H    -4.38413   -7.59924   19.01789
       O    -5.02149   -8.22520   19.36905
      H1    -5.60494   -7.54713   19.84299
       H    -7.16011   -7.90270   16.41963
       O    -7.53694   -6.97618   16.31440
      H1    -8.14851   -7.08531   15.48531
       H    -6.61912   -9.87288   17.25450
       O    -6.39733   -9.56851   16.30947
      H1    -6.73286  -10.39809   15.85490
       H    -2.92454   -1.71493   17.43886
       O    -3.38793   -2.38880   17.91119
      H1    -3.51844   -3.09531   17.20284
       H    -9.26366   -4.13818   13.52656
       O    -8.97274   -3.92217   14.41370
      H1    -9.72779   -4.09562   14.97500
       H    -6.39987   -2.88342   16.55390
       O    -6.08178   -2.01594   16.73237
      H1    -5.37985   -2.36425   17.36793
       H    -0.42205   -2.83110   13.68806
       O    -1.03128   -3.48514   13.94610
      H1    -1.87615   -3.12813   13.65722
       H    -6.34063   -5.82928   14.41357
       O    -6.23808   -5.85305   13.44950
      H1    -6.74662   -6.68574   13.23197
       H    -5.48308   -1.60214   13.75280
       O    -5.05271   -1.12272   14.50081
      H1    -5.40060   -1.51694   15.35699
       H    -8.41203    0.47309   15.79935
       O    -9.24613    0.11998   16.13302
      H1    -9.81014    0.52328   15.46188
       H     1.35330   -9.43523   19.22635
       O     0.92599   -9.20545   18.42789
      H1     1.55468   -8.50382   18.16193
       H     1.44331    1.09546   18.70875
       O     0.86370    0.52071   18.25480
      H1     0.40268    1.12280   17.68596
       H     1.22859   -2.83145   12.51101
       O     1.24155   -2.29535   13.34722
      H1     1.01247   -1.47375   12.93076
       H    -0.86514   -0.17261   14.30074
       O     0.02354    0.17248   14.29881
      H1     0.34551   -0.33507   15.05256
       H    -0.37803   -4.81646   17.80806
       O    -0.07689   -5.58998   18.30640
      H1    -0.98284   -5.99726   18.45874
       H     2.67659    2.00144   16.63130
       O     3.47679    2.44053   16.85550
      H1     3.62560    3.12093   16.17979
       H    -5.32682    4.70714   14.40293
       O    -5.65333    4.10987   15.04071
      H1    -6.48799    3.85721   14.63731
       H    -0.41576   -3.36990   20.08352
       O    -0.31993   -2.64281   19.52878
      H1    -1.00854   -2.67698   18.85245
       H    -5.59250    0.95170   12.57436
       O    -6.12012    0.37354   12.00072
      H1    -6.11554    0.88874   11.17120
       H    -7.91197    4.48923   18.93809
       O    -7.90247    4.45153   17.95348
      H1    -6.93386    4.55185   17.87280
       H    -1.25283   -3.29069   16.19554
       O    -0.51367   -3.45287   16.75886
      H1     0.19714   -3.03900   16.28035
       H     1.41027   -5.89762   14.44060
       O     0.45400   -6.09578   14.41267
      H1     0.20735   -5.16375   14.41960
       H    -4.23348    0.71518   15.48978
       O    -4.37648    1.06588   16.38269
      H1    -4.59902    1.96837   16.08051
       H    -8.81795   -0.28061   17.88182
       O    -8.52151   -0.26644   18.80136
      H1    -7.83495   -0.97664   18.87629
       H     2.89938   -5.83447   16.05417
       O     3.13030   -5.29324   15.25003
      H1     3.61100   -4.58961   15.70406
       H    -9.02172   -1.60593   12.63585
       O    -9.03676   -0.68555   12.46256
      H1    -8.10304   -0.39223   12.44804
       H    -3.55949   -8.60215   12.49699
       O    -4.07094   -9.29550   12.99722
      H1    -3.76411   -9.03273   13.93408
       H    -7.39533    0.86274   18.28717
       O    -6.94155    1.78407   18.13860
      H1    -7.65757    2.33744   17.79785
       H    -2.29394    0.68210   10.55493
       O    -1.99203   -0.17882   10.91337
      H1    -1.05076    0.01094   11.09142
       H    -3.33790   -5.70745   19.86712
       O    -3.28651   -6.22257   19.03597
      H1    -2.67468   -6.96354   19.36551
       H    -2.75186   -0.45915   12.69131
       O    -2.56558   -0.65841   13.62340
      H1    -3.49330   -0.79463   13.96260
       H    -1.48311   -8.51746   20.12183
       O    -1.63141   -8.52560   19.17164
      H1    -0.77828   -8.74211   18.76345
       H    -6.32147    1.23009   16.04045
       O    -6.83837    1.10449   15.18474
      H1    -6.48133    0.24138   14.99088
       H    -3.10414   -5.02278   14.11917
       O    -3.30912   -5.54580   13.35539
      H1    -4.33136   -5.53207   13.38574
       H     1.57549   -4.79035   18.18633
       O     2.13657   -3.97263   18.14359
      H1     3.02306   -4.37038   17.99043
       H    -8.28837   -3.60654   11.77520
       O    -9.19415   -3.97974   11.71273
      H1    -8.90425   -4.59306   11.01775
       H     1.67247    3.55856   19.46358
       O     1.25431    4.40892   19.24826
      H1     1.94754    4.82052   18.71041
       H    -9.26418   -3.84650   18.83786
       O    -9.21671   -4.77867   18.61182
      H1    -9.86935   -4.79066   17.90615
       H    -2.05236   -7.29598   10.88718
       O    -2.62913   -7.59658   11.60260
      H1    -2.68123   -6.88006   12.24904
       H    -3.27506   -5.34327   16.66757
       O    -3.57815   -4.47855   16.27847
      H1    -4.52724   -4.69609   16.29902

