180
frame 0 | Written by MDAnalysis XYZWriter (release 2.4.3)
       H     5.25831    5.74088  -18.84238
       O     4.94274    5.47106  -19.72439
      H1     4.34396    4.73643  -19.53268
       H     4.97867    7.54394  -14.16748
       O     4.71257    7.45387  -13.25545
      H1     3.94329    8.05423  -13.27369
       H    -0.80254   18.70238  -14.60151
       O    -0.37693   19.55021  -14.23725
      H1     0.57467   19.27115  -14.11869
       H    10.28511   12.40752  -17.70441
       O    10.39241   12.66493  -16.72243
      H1    11.32111   12.44627  -16.62421
       H     7.40353   10.38724   -9.80444
       O     7.07043   11.17761  -10.19990
      H1     6.97289   11.73748   -9.39929
       H     3.63130   16.84373  -17.15103
       O     3.80256   17.55961  -17.81110
      H1     3.09932   17.33496  -18.49708
       H     3.83037   10.66813  -12.05102
       O     4.05058   11.01969  -12.92690
      H1     4.99683   11.09888  -12.94223
       H     5.51282   11.91629  -18.58037
       O     5.87487   11.21120  -19.19027
      H1     5.32959   11.28442  -19.99310
       H     6.86218    9.13277  -12.76869
       O     6.75129    9.96065  -13.29260
      H1     7.64749    9.93954  -13.59991
       H     7.78238   16.20664  -14.83241
       O     8.69843   16.35725  -14.54119
      H1     8.87216   17.32229  -14.83668
       H     9.67229   15.45574  -16.07369
       O    10.30790   15.39939  -16.80918
      H1    10.47983   14.44428  -16.92781
       H    -1.66317   16.58858  -14.85240
       O    -0.83503   16.89896  -14.41749
      H1    -0.62458   16.18909  -13.83106
       H     7.97831   16.13239  -19.45999
       O     7.55640   16.46063  -18.61470
      H1     8.24971   16.94190  -18.21610
       H    11.72839   16.13933  -16.21817
       O    12.66905   16.24138  -15.99813
      H1    13.14373   15.52236  -16.41873
       H    10.21378   10.18429  -16.21365
       O    10.78193    9.76583  -16.88604
      H1    10.57936   10.36179  -17.65703
       H     0.83166   16.19221  -11.81975
       O     1.21137   17.12179  -11.91506
      H1     1.31308   17.15030  -12.83785
       H    -1.36148   18.75859  -17.38761
       O    -2.15741   19.37061  -17.30479
      H1    -1.81874   19.93129  -16.59563
       H    10.99607   15.62421  -12.97623
       O    10.40360   14.90982  -12.66391
      H1     9.58726   15.02332  -13.17486
       H     7.45193   12.57769  -15.23501
       O     7.96150   13.38215  -15.32773
      H1     8.65495   13.28790  -16.00414
       H    -1.26375   10.94219  -18.95071
       O    -2.09198   11.08161  -18.47514
      H1    -2.01391   11.93934  -17.98745
       H     1.26978   13.83925  -16.52820
       O     1.23913   14.74209  -16.18394
      H1     2.19118   14.95991  -15.93872
       H    -2.24729   10.21566  -17.02712
       O    -2.41414    9.87963  -16.08697
      H1    -3.38305    9.79328  -16.13913
       H     9.38837    7.19032  -16.99928
       O     8.78091    7.92830  -16.64246
      H1     9.30783    8.67088  -16.91045
       H     2.24283   11.89454  -17.64047
       O     1.90286   12.12493  -16.74197
      H1     1.31580   11.28639  -16.58385
       H     1.51024   13.41891  -14.69269
       O     1.53021   12.73878  -14.05768
      H1     1.70744   12.00308  -14.63631
       H     1.10823   10.92638  -11.60261
       O     1.32723   11.19681  -10.66827
      H1     1.45342   10.36008  -10.16572
       H     3.09091    8.00035  -16.78571
       O     2.59386    7.26203  -16.37385
      H1     2.41113    7.68351  -15.52218
       H     3.00628   19.05244  -17.43138
       O     2.51275   19.83714  -17.06616
      H1     1.74423   19.71498  -17.67138
       H     6.51413    6.50125  -14.90257
       O     6.04707    6.93342  -15.64006
      H1     6.60635    7.59547  -16.06610
       H     1.80777    9.43190  -14.14424
       O     2.67665    8.96911  -14.25121
      H1     3.30323    9.63711  -13.83187
       H     3.86743   11.12283   -9.95290
       O     4.21727   10.30218  -10.28669
      H1     5.16449   10.42315  -10.20923
       H    10.07818   19.15546  -15.03224
       O     9.08044   19.13102  -14.94252
      H1     8.73977   19.55672  -15.75058
       H     0.77091   15.15498  -17.89581
       O     0.46046   15.61304  -18.70929
      H1    -0.45644   15.45682  -18.83674
       H    -3.03861   11.88471  -16.53089
       O    -2.70154   12.81332  -16.65105
      H1    -3.55024   13.24490  -16.75516
       H     4.48260   15.93180  -18.44831
       O     4.27909   15.02161  -18.67705
      H1     4.83019   14.81051  -19.43340
       H    10.42185   16.60708  -17.92747
       O    10.55149   17.32509  -18.56858
      H1    10.46239   16.85140  -19.42902
       H     9.78504    9.84649  -13.89612
       O     9.29766   10.57520  -14.39869
      H1     9.60955   11.37852  -13.86542
       H    -0.10883   14.18284  -12.02273
       O    -0.09160   14.60198  -12.92286
      H1    -0.00564   13.87100  -13.51196
       H     5.78792    8.00631  -11.72076
       O     6.68145    7.99283  -11.34424
      H1     6.48818    8.50708  -10.53367
       H     0.31325   11.39264  -13.30583
       O     0.33281   10.43869  -13.13012
      H1    -0.51521   10.31558  -12.66687
       H     5.14235   13.77893  -17.39797
       O     5.37064   12.90214  -16.98549
      H1     4.91573   12.91125  -16.13499
       H     3.19538   19.15749  -14.11862
       O     2.35734   19.45756  -13.71935
      H1     2.74467   19.95009  -12.96242
       H     9.30634   12.96189  -11.24279
       O     9.75685   12.50062  -10.53345
      H1     9.06342   11.89198  -10.22482
       H     8.26727   13.15345  -13.45985
       O     8.12319   13.07167  -12.50002
      H1     7.18136   13.11344  -12.29522
       H     4.58853   15.78359  -15.99499
       O     3.68996   15.71593  -15.58931
      H1     3.88950   15.66581  -14.63171
       H     0.58025    8.93678  -16.59202
       O     0.58443    9.83707  -16.26306
      H1    -0.33948    9.90829  -15.99089
       H     4.24257   17.94665  -15.46977
       O     4.59827   18.60065  -14.79345
      H1     4.97313   19.29974  -15.31299
       H     7.30014   16.86959  -10.86323
       O     7.10284   17.70074  -10.41247
      H1     7.14925   18.22174  -11.24907
       H     4.71992   14.68702  -10.77866
       O     5.57986   14.97594  -11.09705
      H1     5.33650   15.82893  -11.62121
       H    -3.34501   15.27450  -18.64743
       O    -2.55930   14.75977  -18.55285
      H1    -2.50684   14.40551  -17.66398
       H     1.73142   10.01645  -19.27366
       O     2.06677    9.31855  -18.73855
      H1     2.89429    9.54914  -18.23284
       H     4.93834    9.74291  -16.49608
       O     4.32351    9.70446  -17.22787
      H1     4.74657   10.32406  -17.87753
       H     6.91008   15.94905  -16.94415
       O     6.32264   15.86352  -16.13904
      H1     6.28437   14.89319  -15.99300
       H     7.65829    7.14544  -17.81594
       O     7.48372    6.31356  -18.33734
      H1     7.72671    6.67786  -19.22948
       H     3.62153   17.15414  -12.15066
       O     4.51759   16.86612  -12.47468
      H1     4.63712   17.58255  -13.11435
       H     0.41219   16.98945  -17.71731
       O     0.25717   17.78697  -17.21689
      H1     0.18316   17.40865  -16.32164
       H    13.07752   11.14752  -16.56063
       O    13.21816   12.06034  -16.80459
      H1    13.20286   12.03534  -17.79932
       H    11.58954   18.78626  -18.36139
       O    12.10816   19.42237  -17.83727
      H1    13.02332   19.05021  -18.00231
       H     3.61946   13.24504  -12.91379
       O     4.11838   14.02728  -13.10228
      H1     4.77512   14.07176  -12.41875
       H    13.23840   13.87270  -12.35998
       O    12.67894   13.23300  -12.86925
      H1    11.86017   13.74628  -13.04400

