180
frame 1 | Written by MDAnalysis XYZWriter (release 2.4.3)
       H     8.43510   10.53262    2.63771
       O     8.08790   10.76661    3.53023
      H1     8.91257   11.19749    3.81896
       H    14.97653    5.33088    4.21929
       O    14.56559    6.15204    4.43977
      H1    13.63250    5.83552    4.36491
       H    16.04898    9.67174   -6.30674
       O    16.26905   10.15227   -7.13332
      H1    15.50047    9.94228   -7.67580
       H    12.57748   14.77045    2.23401
       O    12.00650   14.65467    2.97377
      H1    11.94409   15.52450    3.29295
       H    14.23880   10.20795    4.76199
       O    14.77199   11.03283    4.68096
      H1    14.16561   11.70983    4.94610
       H    17.42886   11.48516    2.18215
       O    16.73045   10.76852    2.32649
      H1    17.11543   10.16411    2.98786
       H    14.96625    3.36202   -1.05650
       O    15.50315    3.21706   -0.26678
      H1    16.01829    2.39349   -0.48462
       H    15.90914   11.04883   -0.72643
       O    16.70141   10.48815   -0.65953
      H1    16.95160   10.37515    0.30085
       H    15.56146   14.14628    1.67792
       O    16.41891   14.48066    1.92490
      H1    16.47466   14.13381    2.84321
       H    12.40069    6.52607   -5.62793
       O    11.92226    7.35047   -5.38041
      H1    12.46275    7.69508   -4.68330
       H    16.83386    8.47432   -1.25782
       O    17.03942    7.56342   -1.15877
      H1    17.51491    7.51909   -0.33890
       H    17.47295    7.03543    2.58912
       O    17.28519    6.47549    1.86214
      H1    16.26402    6.49479    1.84638
       H    16.87703    8.12573   -4.21123
       O    16.32581    8.89607   -4.53822
      H1    15.43902    8.52396   -4.47289
       H    13.68646    5.27158   -1.93637
       O    13.87089    4.43093   -2.37729
      H1    12.95892    4.31234   -2.73505
       H     8.05780    4.81228   -4.79773
       O     8.97873    4.95885   -4.50643
      H1     9.57512    4.77087   -5.27658
       H    13.50224   14.39557   -0.86097
       O    12.56973   14.40265   -0.59861
      H1    12.39910   13.47799   -0.48177
       H    15.74847    3.36415   -4.57294
       O    15.57513    2.76380   -5.30396
      H1    14.61911    2.70262   -5.37308
       H    10.19989    8.10959   -4.14252
       O     9.69127    7.84610   -3.39838
      H1     9.61586    6.88302   -3.39897
       H    10.60506   12.60891   -1.44712
       O    11.02769   11.93931   -0.89318
      H1    10.61632   12.30823   -0.06845
       H    13.50795   11.86086    2.13754
       O    14.31491   12.22397    1.77689
      H1    14.98299   11.56518    2.09427
       H    14.64338    0.94266    0.69742
       O    13.95999    1.45178    1.14302
      H1    14.13532    2.35606    0.76655
       H    13.38411    9.55173   -4.31509
       O    13.79974    8.96364   -3.64857
      H1    13.27586    9.24333   -2.82128
       H    15.12307    4.45407   -5.77953
       O    14.39899    5.09810   -5.76428
      H1    14.60419    5.47094   -6.61684
       H    14.07404   11.85127   -0.15808
       O    14.40640   11.71883   -1.02506
      H1    13.91815   10.93787   -1.34406
       H    11.56858    8.04264   -7.04545
       O    11.37699    8.43573   -7.89827
      H1    10.72232    7.87512   -8.31753
       H    11.73612   13.82359   -4.59709
       O    11.58148   12.87294   -4.37767
      H1    10.67721   12.61454   -4.52964
       H    16.09010    3.82459    1.78164
       O    15.60651    3.93389    2.56831
      H1    15.53631    3.09705    3.04256
       H    12.22969    8.49111    1.78326
       O    13.13858    8.83022    1.87162
      H1    13.35010    9.04173    0.93367
       H     8.88729    4.36323    0.52401
       O     8.98345    4.75624   -0.38453
      H1     9.82974    5.20496   -0.22145
       H    10.46122    3.72282   -1.76608
       O    10.80795    3.91529   -2.62900
      H1    10.07141    4.35664   -3.02175
       H    12.27530    4.51839    4.92428
       O    12.71314    4.10436    4.13459
      H1    12.83843    3.17286    4.48298
       H    12.07026    1.78645    0.22430
       O    11.29446    2.06537   -0.21077
      H1    10.68308    2.24707    0.52860
       H     6.83332    7.39792   -0.07377
       O     6.46609    6.50347   -0.08768
      H1     7.25019    5.95478   -0.22858
       H    16.05035   10.55975   -3.76634
       O    16.22890   11.52210   -3.47589
      H1    15.58274   11.63401   -2.75780
       H    10.28941   12.14805    4.76237
       O    10.52407   11.20322    4.87086
      H1    11.13861   10.99780    4.10781
       H    17.23825    5.23176   -3.80376
       O    16.81917    4.38936   -3.53956
      H1    16.22008    4.70222   -2.84650
       H    14.76839    5.59880    2.02457
       O    14.57329    6.41918    1.46555
      H1    14.26151    7.07807    2.11541
       H    12.66410    8.76133    6.16370
       O    13.62267    8.86379    6.01220
      H1    13.99457    8.08066    6.36772
       H     8.52763   14.15342   -1.56520
       O     9.54360   14.14967   -1.66386
      H1     9.75766   14.57173   -2.52431
       H     9.29893   11.44888   -5.56199
       O     9.06507   11.86958   -4.70360
      H1     8.45172   12.64829   -4.94923
       H    10.83932    6.65164    2.67719
       O    10.91951    7.50629    3.13509
      H1    10.04271    7.93980    3.16565
       H    14.99922    6.85348   -1.21833
       O    14.06614    6.75931   -1.07179
      H1    14.03917    6.63896   -0.08639
       H     9.82921    9.15073   -1.94490
       O    10.19311    9.44508   -1.05569
      H1    10.40914   10.36118   -1.18034
       H    11.22757   11.39204    1.91452
       O    11.90511   11.20143    2.56454
      H1    12.30146   10.39544    2.13586
       H    11.69504    4.41902    2.13147
       O    11.67996    5.27241    1.65907
      H1    12.63882    5.45653    1.76936
       H     8.86574   12.56998    1.61929
       O     9.87180   12.68605    1.45617
      H1    10.09256   13.47951    1.88218
       H     7.83741   10.56369   -3.83410
       O     7.51179    9.70547   -3.55006
      H1     8.35445    9.18633   -3.57006
       H    11.41242    6.03076    6.48691
       O    11.98679    6.41758    5.76049
      H1    11.30042    6.86588    5.20916
       H    12.96738    1.83184   -3.89214
       O    12.67731    1.21982   -3.19726
      H1    11.73845    1.39842   -3.20332
       H    19.74799   10.50103   -1.05889
       O    19.28389   11.27289   -1.46913
      H1    18.31747   10.95291   -1.34282
       H     8.81175    9.81359    0.03909
       O     8.18331   10.14903    0.71876
      H1     7.98255   11.06884    0.41921
       H    12.12564    9.02323   -1.08869
       O    13.06210    9.19375   -0.93217
      H1    13.44051    8.30179   -0.90129
       H    15.78958   13.18806   -4.47432
       O    15.51177   14.07389   -4.35275
      H1    14.87715   14.19922   -5.12496
       H    16.19482   14.89750   -1.08577
       O    15.27361   15.15483   -1.28333
      H1    15.22066   14.77495   -2.23366
       H    10.29421   10.19691   -7.03034
       O     9.37906   10.43170   -6.97137
      H1     9.28607   11.27824   -7.52997
       H    13.07412   11.58178   -5.87343
       O    13.28437   10.68758   -6.07590
      H1    13.45311   10.59797   -7.05507
       H    17.89201    3.75221   -1.93757
       O    18.53605    3.81678   -1.24231
      H1    18.60817    4.75658   -0.98221
       H    19.97740    4.89437    0.96024
       O    19.48394    5.70154    0.58140
      H1    18.66817    5.65627    1.15819
       H    18.88890    7.50049   -3.53625
       O    18.06067    6.94776   -3.51019
      H1    17.83268    7.00701   -2.53196
       H    17.51557    8.90752    4.73898
       O    17.90177    8.75909    3.85334
      H1    18.80331    9.14301    3.91669

