180
frame 8 | Written by MDAnalysis XYZWriter (release 2.4.3)
       H    -0.10630  -13.29666   18.35348
       O     0.37574  -12.51072   18.71280
      H1     0.32150  -11.98340   17.87919
       H    -9.48831  -17.64201   13.72236
       O    -9.53774  -18.01891   14.60190
      H1    -8.63521  -18.26684   14.75919
       H    -8.48787  -11.39211   11.58221
       O    -8.95268  -11.14093   10.70548
      H1    -9.37038  -10.36199   11.13953
       H    -0.43546  -15.48233    8.26149
       O    -1.36653  -15.42741    7.96340
      H1    -1.88312  -15.88284    8.69267
       H    -6.99904  -11.65945   15.83485
       O    -6.13464  -11.30243   15.68711
      H1    -6.06310  -11.17353   14.74998
       H    -5.49336  -15.87033    9.73298
       O    -6.15026  -16.56839    9.80631
      H1    -6.92146  -16.39486    9.21404
       H     2.94821  -18.75416   11.36206
       O     2.14704  -18.54748   11.88104
      H1     1.53869  -19.25682   11.63687
       H    -5.59655  -12.86911   10.67056
       O    -6.35702  -13.45289   10.84093
      H1    -6.52727  -13.76871    9.95874
       H    -9.66589  -15.62837   18.02102
       O    -9.80165  -15.48050   18.95629
      H1    -9.18921  -14.83739   19.24218
       H     2.45072  -15.84496   13.72319
       O     2.13107  -16.75270   13.89162
      H1     2.17192  -17.23835   13.03684
       H    -5.50996  -13.64275   12.39658
       O    -4.65331  -13.89503   12.90601
      H1    -4.45453  -13.08352   13.47249
       H   -11.32427  -13.84264   19.09842
       O   -10.90931  -13.00426   18.81960
      H1   -11.52627  -12.41101   19.20217
       H    -7.74861   -9.67762   13.21417
       O    -7.62492   -8.79561   12.83607
      H1    -8.54889   -8.54574   12.70763
       H    -4.82820  -10.91457   12.82458
       O    -4.27701  -11.03472   13.64794
      H1    -3.42860  -11.29910   13.30949
       H   -12.06196  -18.08379   18.65148
       O   -12.59731  -17.23109   18.80377
      H1   -11.97839  -16.65408   19.26376
       H    -8.33849  -16.65729   11.90694
       O    -9.17447  -16.55950   12.40147
      H1    -9.76782  -16.45337   11.63142
       H    -2.74712  -11.74681   17.37598
       O    -2.71270  -11.95881   16.41381
      H1    -2.84177  -11.09427   15.99470
       H    -2.08868  -17.83252   11.12136
       O    -2.06578  -17.25128   10.32349
      H1    -2.75119  -17.68372    9.80192
       H    -3.78349  -18.09429    7.69836
       O    -4.05421  -18.31909    8.56824
      H1    -4.90959  -17.84903    8.58090
       H    -5.12702   -9.69886   17.91994
       O    -5.11483   -9.09049   17.14274
      H1    -5.34561   -9.61744   16.37831
       H    -1.36559  -12.73917   11.54756
       O    -2.01806  -12.06125   11.68350
      H1    -1.46092  -11.27247   11.76787
       H   -13.95192  -12.81766   10.58415
       O   -13.50478  -13.70523   10.62019
      H1   -13.54042  -13.85970   11.58416
       H    -6.21933  -14.09053   18.01535
       O    -5.92321  -13.13048   18.13070
      H1    -6.05369  -12.90877   17.17499
       H   -13.26702  -19.29688   13.89700
       O   -14.20470  -19.26700   13.84558
      H1   -14.24309  -18.45195   13.29728
       H     0.30067  -17.03110   17.47046
       O     0.72993  -16.45675   18.11771
      H1     0.06879  -15.81804   17.93969
       H    -3.09408  -15.70122   10.63757
       O    -3.85826  -15.11014   10.46246
      H1    -3.86404  -14.58138   11.33271
       H   -10.36691  -15.74302    7.95907
       O   -11.22487  -15.96106    8.31638
      H1   -11.79619  -15.24472    7.93454
       H    -0.24726  -17.07204   10.09319
       O     0.59780  -16.55940   10.27990
      H1     1.13282  -17.34979   10.61009
       H    -2.08693  -15.00730   18.73940
       O    -1.43185  -14.52545   18.19160
      H1    -1.96678  -14.09956   17.52072
       H    -7.64033  -13.36620    7.83482
       O    -6.80393  -12.93282    8.03261
      H1    -7.05164  -12.01410    8.07544
       H    -4.66158  -15.06696   16.63633
       O    -3.72796  -14.96819   16.50201
      H1    -3.61717  -13.98985   16.33681
       H   -11.25105  -16.76534   10.21057
       O   -11.49382  -16.98279   11.12087
      H1   -12.17962  -16.37458   11.42721
       H    -6.65671  -15.02530   13.69915
       O    -7.43827  -14.54658   14.09507
      H1    -8.11185  -14.93740   13.52861
       H   -14.25808  -17.55179   11.15617
       O   -14.47997  -16.97793   11.89123
      H1   -15.43384  -17.02185   11.93882
       H   -11.44233  -13.04830   14.72998
       O   -11.03116  -12.50409   13.99921
      H1   -11.12374  -13.09350   13.17555
       H     1.55743  -15.06174   16.14146
       O     1.15061  -14.35948   15.57210
      H1     0.82586  -14.98081   14.87077
       H   -14.96696  -14.79013   12.89869
       O   -14.24985  -14.24411   13.16760
      H1   -14.65011  -13.36710   12.93301
       H   -11.41960  -13.49048   17.21624
       O   -11.81639  -13.64377   16.33800
      H1   -11.33658  -14.41289   16.10109
       H    -9.01460  -11.47954   16.84632
       O    -8.88745  -12.43659   16.75030
      H1    -9.64970  -12.80929   17.13638
       H    -1.97644  -10.52175   18.65427
       O    -1.97721  -11.36853   19.11720
      H1    -1.02537  -11.60137   18.97142
       H     0.17664  -18.99353   16.42625
       O    -0.54344  -18.42111   16.24104
      H1    -1.29240  -18.73456   16.86405
       H    -3.32966  -15.49999   15.06201
       O    -2.99055  -15.82898   14.16917
      H1    -3.56023  -15.21557   13.68020
       H    -9.05054  -17.88943    7.54836
       O    -8.12800  -17.50731    7.63018
      H1    -7.74752  -17.66320    6.73633
       H    -4.74174  -18.75905   18.17374
       O    -5.24843  -19.13449   18.95724
      H1    -5.62978  -18.33046   19.35186
       H   -15.17144  -17.20436   18.40880
       O   -15.79268  -17.57857   17.75389
      H1   -15.22893  -18.38503   17.58088
       H    -0.76170  -11.99164   14.29834
       O     0.07109  -11.59540   14.30083
      H1     0.64018  -12.27832   13.97232
       H    -9.16675  -14.91597   15.60505
       O    -9.58245  -15.61676   16.17469
      H1    -9.46547  -16.44131   15.61004
       H   -14.52713  -13.67526   15.09519
       O   -14.52233  -13.46935   16.04593
      H1   -13.57771  -13.71268   16.14432
       H    -9.34323  -11.91265   13.62570
       O    -8.45882  -11.55232   13.35647
      H1    -7.99028  -12.35053   13.67491
       H   -11.48975  -13.34229   10.86695
       O   -10.78415  -13.31719   11.50575
      H1   -10.26009  -12.52479   11.38300
       H   -13.73956  -19.74692   10.18421
       O   -13.66961  -18.80865   10.03880
      H1   -12.81779  -18.51111   10.52846
       H    -6.61558  -17.66704   14.29902
       O    -6.73686  -17.94641   15.21358
      H1    -6.36248  -18.85166   15.35450
       H    -6.76607  -18.20723   12.34126
       O    -6.52847  -17.26367   12.33593
      H1    -6.19542  -17.14122   11.37587
       H    -9.03121   -9.53062   17.76673
       O    -9.54980   -9.98324   17.08174
      H1   -10.26690  -10.20167   17.67628
       H    -3.01387  -17.80886   13.13945
       O    -2.55939  -18.62159   12.74296
      H1    -3.35867  -19.14564   12.42631
       H   -10.51265  -20.18443    7.39225
       O   -10.05777  -19.31583    7.26392
      H1   -10.74911  -18.82108    6.71196
       H    -4.09509  -17.27170   16.44736
       O    -3.74063  -17.93417   17.07328
      H1    -3.15168  -17.30056   17.58721
       H    -6.42191  -16.57870   16.88883
       O    -6.15669  -15.74346   17.28297
      H1    -6.14533  -16.08401   18.22978
       H    -0.77802  -15.48309   12.98069
       O    -0.73768  -14.80130   12.31267
      H1    -0.51084  -15.35473   11.57678
       H    -4.56142  -10.58471   10.25135
       O    -4.61573  -11.25131   10.95973
      H1    -3.69056  -11.44669   11.01141

