180
frame 2 | Written by MDAnalysis XYZWriter (release 2.4.3)
       H    -8.89208   11.81630  -10.64956
       O    -8.18729   11.24066  -10.30419
      H1    -7.55732   11.17574  -11.05069
       H     1.19909    3.74925   -9.20752
       O     1.28498    4.54517   -8.60597
      H1     1.10968    5.33573   -9.25822
       H    -3.63406    9.91850   -5.49230
       O    -4.12002    9.10464   -5.76461
      H1    -3.66551    8.76770   -6.53864
       H    -2.26704    0.51637  -13.50952
       O    -1.62799   -0.03693  -13.03136
      H1    -2.22298   -0.38623  -12.33384
       H   -10.25672    7.37222  -11.90123
       O    -9.40294    7.21616  -12.44391
      H1    -9.73134    7.04436  -13.35582
       H    -3.78339    2.01757  -18.21944
       O    -2.96229    1.94699  -17.63563
      H1    -2.58298    1.18691  -18.06405
       H    -4.40670    5.72940  -18.30941
       O    -3.64799    5.39256  -18.79906
      H1    -3.18811    4.90921  -18.05689
       H    -3.22123    4.07130  -12.46419
       O    -3.92945    3.82807  -13.12475
      H1    -4.40015    3.21523  -12.56201
       H    -3.19426    9.00379  -11.26834
       O    -3.28748    9.89636  -11.57186
      H1    -3.25762   10.38663  -10.70548
       H     0.05731    8.35133   -7.99358
       O    -0.67399    8.15024   -7.32388
      H1    -0.54643    8.96256   -6.74733
       H    -4.93576    1.55996  -14.67442
       O    -5.91147    1.47914  -14.72870
      H1    -6.05539    1.83955  -15.64864
       H    -6.60360    5.81030  -15.31336
       O    -7.07691    6.48042  -14.77713
      H1    -7.19273    5.94977  -13.93789
       H     0.99279    4.86851  -13.55069
       O     1.74159    5.05477  -12.94456
      H1     1.86477    4.21295  -12.48377
       H    -3.90489    7.40001  -15.41155
       O    -4.62324    8.02501  -15.52475
      H1    -5.42646    7.52385  -15.27557
       H     2.30613    8.26498   -8.67108
       O     1.45649    8.19502   -9.15028
      H1     1.64497    7.51478   -9.80964
       H    -1.35236    4.70546  -10.42510
       O    -1.75212    3.90693  -10.78214
      H1    -1.91626    3.33689   -9.98926
       H     1.19131    2.23463  -13.31543
       O     1.82375    2.06973  -14.01279
      H1     2.00231    3.00255  -14.32684
       H    -6.79242    8.20952  -11.74944
       O    -6.08879    8.40163  -11.11086
      H1    -6.43271    7.95497  -10.31500
       H    -0.57809    1.36277  -12.32528
       O    -0.03984    2.10870  -12.16376
      H1    -0.65601    2.67744  -11.64515
       H    -6.77480    5.83449   -9.02474
       O    -7.26009    6.63949   -9.30497
      H1    -7.66490    6.86009   -8.46368
       H    -1.64813   11.25566  -19.12575
       O    -1.49873   11.25089  -18.19049
      H1    -2.44671   11.17121  -17.93278
       H    -6.04403   11.92486   -9.69602
       O    -5.20371   11.89462  -10.17496
      H1    -5.50483   11.81586  -11.08473
       H    -4.92641   10.66994  -17.35293
       O    -5.35509   11.55338  -17.05102
      H1    -6.28057   11.22011  -16.87369
       H    -9.38559    8.33504  -15.75535
       O    -8.57360    8.14417  -16.26435
      H1    -8.14654    7.45259  -15.69913
       H    -8.05663    9.92289  -16.61258
       O    -8.01290   10.82947  -16.92632
      H1    -8.33093   11.28997  -16.16018
       H     0.28941    9.82817  -12.20781
       O     1.00026   10.02088  -11.59216
      H1     0.86716    9.40999  -10.86487
       H    -7.42591    4.42472  -12.36061
       O    -7.00697    5.28559  -12.42902
      H1    -7.63770    5.87012  -12.02775
       H    -3.06999    1.42454  -15.70127
       O    -3.24022    1.44341  -14.71138
      H1    -3.03686    2.40320  -14.46306
       H    -1.41892    7.61956  -18.06244
       O    -1.79161    8.03234  -17.25279
      H1    -1.83700    8.98441  -17.41455
       H    -6.50660    8.60913  -18.92655
       O    -7.35533    8.13724  -19.04040
      H1    -7.76790    8.26510  -18.13549
       H     1.22933    8.21832  -14.92715
       O     2.11223    8.44286  -14.75283
      H1     2.09148    9.29827  -15.17326
       H     1.17671    5.32679  -17.47170
       O     1.63988    5.23205  -16.64632
      H1     2.21399    5.97152  -16.47056
       H    -3.87660    6.87917  -12.85807
       O    -3.80325    7.02270  -11.86929
      H1    -4.60562    7.52316  -11.67808
       H    -3.90811   12.75282  -14.54363
       O    -4.11160   13.52737  -15.06531
      H1    -4.52214   13.14941  -15.92017
       H    -5.31408    4.24839   -6.94627
       O    -6.04041    4.45294   -7.53152
      H1    -5.64889    4.22310   -8.37171
       H    -8.27311    2.16553  -12.02559
       O    -7.45880    2.62038  -12.34011
      H1    -7.12635    2.00512  -13.03746
       H    -0.31000   11.26192  -13.87252
       O    -0.83960   10.50409  -13.50760
      H1    -1.66358   10.91350  -13.23198
       H     0.72351   11.73143  -10.83741
       O     0.44761   12.57024  -10.38233
      H1    -0.42426   12.62474  -10.74040
       H    -4.08256   10.69337   -8.56199
       O    -4.16815    9.73750   -8.75969
      H1    -4.94417    9.69019   -9.29197
       H    -6.60659    5.85275  -17.97939
       O    -5.90858    6.33924  -17.51192
      H1    -6.06082    7.18127  -17.93419
       H    -5.51948    4.67976  -10.94877
       O    -5.12570    4.44336  -10.08773
      H1    -4.27292    4.86441  -10.28789
       H    -0.33254    4.30865   -7.65218
       O    -0.76485    3.54998   -7.24564
      H1    -0.63476    3.86753   -6.27672
       H    -6.83899   12.74194  -13.00337
       O    -6.42956   12.01191  -12.48932
      H1    -5.91129   11.42475  -13.10638
       H    -3.93936   10.39122  -13.10084
       O    -4.29559   10.68396  -13.96782
      H1    -4.32117    9.78611  -14.38975
       H    -1.00545    8.05497  -15.59249
       O    -0.59301    7.75237  -14.77679
      H1    -1.01783    8.31960  -14.13943
       H    -7.89760    3.66511  -17.69947
       O    -7.99891    4.46838  -18.21780
      H1    -8.85049    4.82763  -18.02031
       H    -6.95895    2.94722   -8.37693
       O    -7.32619    2.27625   -8.96113
      H1    -8.24783    2.55973   -9.06831
       H    -2.97750   13.33172  -11.54312
       O    -2.52930   12.97999  -10.76461
      H1    -3.31592   12.50675  -10.42292
       H    -2.11304    7.65905   -8.17804
       O    -2.93055    7.29762   -8.57076
      H1    -3.47258    8.11774   -8.63776
       H     1.03998    9.45998  -17.61685
       O     0.51987    9.96250  -16.95004
      H1    -0.15346   10.39431  -17.49889
       H    -0.75208    6.82214  -10.69209
       O    -1.00571    6.33292   -9.94301
      H1    -1.87275    6.63876   -9.57955
       H    -2.63348    4.68957   -7.05250
       O    -3.37875    5.20267   -6.81829
      H1    -3.50610    5.94100   -7.50974
       H     1.31354    6.58383  -12.38325
       O     0.86180    7.33679  -11.89775
      H1     1.25776    8.06244  -12.34825
       H    -4.04037    8.63374  -18.84033
       O    -4.65182    9.10827  -18.17951
      H1    -4.53836    8.62149  -17.38779
       H     0.37518    4.70527  -15.39967
       O    -0.41294    4.86474  -14.87245
      H1    -0.34841    5.80509  -14.77308
       H    -2.11853    2.44453   -8.11407
       O    -2.77811    2.29653   -8.82477
      H1    -2.53630    1.36919   -9.03658
       H    -0.69653    3.17759  -15.87428
       O    -0.38197    2.81561  -16.72492
      H1    -1.13683    2.33024  -17.13094
       H    -4.80394    2.09500  -10.51557
       O    -4.87932    1.64056  -11.32658
      H1    -5.80472    1.79090  -11.57799
       H    -5.71270   10.04428   -6.96210
       O    -6.58364   10.11681   -7.28948
      H1    -6.95462    9.32858   -6.85513
       H    -3.78340    4.89962  -14.69627
       O    -3.48228    5.56854  -15.36244
      H1    -2.51549    5.53264  -15.34741

