180
frame 2 | Written by MDAnalysis XYZWriter (release 2.4.3)
       H   -14.94669   14.52648    5.88192
       O   -14.05242   14.76600    6.07791
      H1   -13.74406   14.79040    5.12565
       H    -3.02495   15.56368    6.57205
       O    -2.21953   15.04297    6.33934
      H1    -1.49835   15.33641    6.97469
       H   -15.07517   16.74254    8.68744
       O   -15.35708   17.58186    9.06028
      H1   -15.99282   17.91964    8.36242
       H    -8.43144   14.73755   14.33219
       O    -9.15825   15.39404   14.50593
      H1    -9.72690   15.22801   13.75681
       H    -4.71220   18.54332    2.80327
       O    -4.35687   17.77937    3.21033
      H1    -3.51447   17.92313    2.72149
       H    -2.49636   17.99811   10.71176
       O    -2.76975   18.55422   11.45124
      H1    -2.32439   18.13844   12.19629
       H    -3.20138   13.56051    5.74295
       O    -3.94928   12.98066    5.43573
      H1    -4.17513   12.55354    6.27901
       H    -5.74341   17.05458    6.43800
       O    -5.01077   16.51069    6.46911
      H1    -5.24447   15.93838    5.71049
       H    -5.79178   15.47057   12.08307
       O    -5.27545   14.61542   12.22002
      H1    -4.70756   14.90871   12.92861
       H    -6.66193   17.73987   -0.97668
       O    -6.61851   18.62006   -0.60171
      H1    -5.85116   19.00802   -1.10973
       H    -9.14358   12.51053    8.96332
       O    -8.70988   11.73607    8.62206
      H1    -9.42500   11.04340    8.70812
       H    -8.79891   18.67065   12.15872
       O    -9.07667   19.62668   12.40183
      H1    -9.81814   19.73773   11.79046
       H    -7.08614   16.51200    1.25441
       O    -6.26587   16.31907    1.70415
      H1    -6.26564   17.08432    2.26592
       H   -10.91289   16.83436    9.39442
       O    -9.97989   16.62380    9.58757
      H1   -10.06343   15.66473    9.37597
       H    -0.18779   13.76351    3.18391
       O    -0.54962   13.91331    4.08568
      H1    -1.42706   14.30087    3.91267
       H   -10.73456   13.17299    9.71153
       O   -10.36929   13.76805    8.99049
      H1   -10.84467   13.49623    8.17695
       H    -2.40657   16.70028   -0.14191
       O    -1.42207   16.75814   -0.30729
      H1    -1.23993   16.86609   -1.26952
       H   -12.98175   18.60357    3.18201
       O   -12.59545   18.11727    2.43212
      H1   -11.74067   18.66018    2.36573
       H    -7.47314   13.91207    2.85738
       O    -7.78073   12.97446    2.79591
      H1    -7.21936   12.59777    3.47099
       H    -6.03086   14.95836    9.02889
       O    -6.11557   14.53333    8.11320
      H1    -5.70175   15.18612    7.48999
       H    -6.44219   13.90350   13.19093
       O    -7.21559   13.59638   13.74855
      H1    -7.84791   13.29828   13.08941
       H   -11.67307   14.77100   12.22398
       O   -10.80584   15.07905   12.51786
      H1   -10.70921   15.79716   11.79891
       H    -9.22585   16.68213    7.93516
       O    -8.65130   16.21821    7.28970
      H1    -7.99306   15.78681    7.87234
       H   -13.85715   18.10629    1.12880
       O   -14.42991   18.23908    0.34166
      H1   -14.34571   19.19366    0.29359
       H    -8.01176   11.18313   10.14772
       O    -7.46291   10.90536   10.94656
      H1    -6.75233   11.59678   10.85185
       H    -3.32089   15.76638    3.24522
       O    -2.84747   14.92694    3.01245
      H1    -3.14232   14.85472    2.06846
       H    -6.08846   11.28759    7.75314
       O    -5.24972   11.79775    7.58521
      H1    -5.71000   12.70109    7.57499
       H    -4.70674   12.59664    9.53461
       O    -5.05065   12.20626   10.33911
      H1    -4.90790   12.87032   11.07084
       H    -7.39047   16.68516   11.26923
       O    -7.30964   16.12527   10.42914
      H1    -8.21689   16.16102   10.14351
       H    -2.21919   13.79700    9.59051
       O    -2.59869   14.60373    9.97404
      H1    -2.58745   15.32962    9.32376
       H    -3.14119   18.05873    8.65259
       O    -2.77303   17.16014    8.81289
      H1    -1.86056   17.39693    8.92967
       H    -9.43707   12.33263    3.42490
       O   -10.14571   11.76034    3.74683
      H1   -10.78217   11.78141    2.98797
       H    -9.26677   19.89704   -1.27026
       O    -9.34911   19.17202   -0.69080
      H1    -8.39275   18.88236   -0.56017
       H    -7.98565   17.72750    6.62880
       O    -7.31070   18.29619    6.19252
      H1    -7.60760   19.08939    6.62495
       H   -12.46122   14.91735    2.94265
       O   -12.76741   15.51022    3.69852
      H1   -12.80910   16.34688    3.20070
       H    -5.56282   11.99696    4.85253
       O    -6.38313   11.67199    4.53872
      H1    -6.86094   11.84507    5.31404
       H   -13.11637   15.55141   10.84288
       O   -12.99724   16.39664   10.37665
      H1   -13.53811   16.95390   10.92280
       H    -5.02689   14.13224    4.28348
       O    -5.79180   14.72746    4.27783
      H1    -5.81954   15.21535    3.41675
       H   -14.89469   17.62968    5.95604
       O   -14.01475   17.72127    5.65173
      H1   -13.94115   16.76836    5.37157
       H     0.77702   18.38410    9.03588
       O     0.07403   17.73648    9.28333
      H1     0.44266   17.18001    9.95327
       H    -1.90013   15.16309   11.52178
       O    -1.44257   15.27962   12.41392
      H1    -2.14801   15.31625   13.03638
       H    -0.18574   16.19726    8.21368
       O    -0.14207   15.24088    7.92658
      H1     0.63641   15.24504    7.27467
       H    -8.84522   12.22915    7.08070
       O    -8.58741   12.49629    6.18606
      H1    -9.36887   12.71664    5.73756
       H    -7.20498   18.68327   15.89429
       O    -6.75095   18.79652   15.02468
      H1    -5.86100   19.00397   15.36051
       H    -9.83619   15.63792    5.52592
       O   -10.04113   15.73578    4.57743
      H1   -11.02137   15.53693    4.48271
       H    -7.43601   17.76598   13.74960
       O    -7.71808   17.21760   13.00358
      H1    -8.19990   16.48516   13.47862
       H   -11.12966   14.04304   -1.04877
       O   -10.94359   14.39120   -0.17903
      H1   -11.23274   15.30887   -0.29152
       H    -3.16788   17.65205    6.38345
       O    -2.80137   18.23031    5.70533
      H1    -3.35194   17.91652    5.01817
       H    -9.90822   19.50260    0.99907
       O   -10.17412   19.47339    1.96184
      H1    -9.46237   18.91891    2.42395
       H   -14.08774   18.89861    9.57479
       O   -13.88922   19.86170    9.69715
      H1   -12.92878   19.72497   10.00759
       H    -4.73655   16.07655    0.66929
       O    -3.86923   15.67666    0.46915
      H1    -4.24976   14.85727    0.12946
       H    -0.94450   16.45794    3.87066
       O    -0.51721   16.96111    4.57450
      H1    -1.29233   17.21067    5.06207
       H    -7.86362   18.18036    4.57783
       O    -8.55088   18.13142    3.83539
      H1    -8.91849   17.23770    3.93990
       H    -9.30955   15.00669   -0.15282
       O    -8.37255   15.24115   -0.16230
      H1    -7.82639   14.57525    0.19742
       H    -5.75847   17.51305   10.09463
       O    -5.16332   18.21574    9.79314
      H1    -4.54279   18.23495   10.54520
       H   -12.60330   18.35251    6.73430
       O   -12.02096   18.97292    7.20148
      H1   -12.66387   19.65071    7.38776
       H    -3.47472   12.10396    4.06962
       O    -3.38046   11.34037    3.49903
      H1    -2.76165   10.87831    4.08489
       H    -0.35607   18.82565    3.48544
       O    -0.57869   19.72521    3.53940
      H1     0.18930   20.10263    3.04907
       H   -13.05810   17.08691   -0.60869
       O   -12.17263   16.77771   -0.76206
      H1   -11.74239   17.57626   -0.46037
       H   -12.57718   13.80815    6.82561
       O   -11.90994   13.09753    6.75055
      H1   -11.70394   13.09205    5.84537

