180
frame 1 | Written by MDAnalysis XYZWriter (release 2.4.3)
       H    -6.18196  -15.05030   -2.22056
       O    -5.41657  -15.36010   -2.78929
      H1    -4.75012  -14.79249   -2.44222
       H    -6.52775  -13.01674    8.28301
       O    -5.95719  -13.63173    7.82993
      H1    -5.00463  -13.40758    8.03651
       H    -1.06951  -14.00421    1.37194
       O    -2.06735  -14.04384    1.45644
      H1    -2.20953  -13.41884    2.15807
       H    -9.31404  -11.93948    8.58908
       O    -8.60186  -12.55695    8.33759
      H1    -8.79336  -12.66558    7.36894
       H     2.11650  -14.65508    7.27897
       O     1.22147  -14.29188    7.15669
      H1     1.24750  -14.01177    6.21989
       H    -3.24311  -11.78144    6.55058
       O    -3.57135  -11.13512    5.91392
      H1    -2.97255  -10.39892    5.90478
       H    -0.77262  -15.67040    8.58047
       O    -0.97113  -15.87743    7.69339
      H1    -0.38348  -15.30641    7.21211
       H    -6.05562  -13.92720    0.35657
       O    -6.18428  -13.05537   -0.09396
      H1    -6.21827  -12.47787    0.63178
       H    -7.60822  -12.49130    2.99214
       O    -8.19710  -13.24202    3.10574
      H1    -7.58217  -13.96487    2.99831
       H    -5.61447  -15.94143    9.19763
       O    -6.49204  -16.34008    9.38339
      H1    -7.04529  -16.28455    8.58870
       H   -10.16961  -14.65967    0.78805
       O   -10.21790  -13.71330    0.57495
      H1    -9.50018  -13.14217    0.89395
       H    -7.42901  -10.79891    3.25453
       O    -6.57163  -11.21628    3.02927
      H1    -6.41646  -11.55897    3.94415
       H     0.56853  -18.29819   10.29033
       O     0.12042  -17.88186   11.04183
      H1    -0.17079  -18.65342   11.54200
       H   -10.34255  -16.09130    4.42347
       O    -9.72535  -15.35195    4.27496
      H1   -10.21950  -14.70123    3.77062
       H    -6.47227  -13.05724   10.97168
       O    -6.93064  -13.86246   11.09310
      H1    -6.54417  -14.28511   10.32896
       H    -0.48727  -17.43236    7.38425
       O    -0.22986  -18.29282    6.91280
      H1    -0.50646  -18.14403    5.97046
       H    -2.64901  -14.28240   -2.40971
       O    -2.23287  -14.47211   -3.24636
      H1    -1.83504  -13.66145   -3.58097
       H     1.52476  -12.21157    1.78072
       O     0.72827  -12.41866    2.30919
      H1     0.03435  -11.88783    1.89319
       H    -1.61474   -9.85120    3.79683
       O    -1.38361   -9.33197    3.04649
      H1    -2.14824   -8.76739    2.93106
       H    -4.31460  -16.68994   10.76221
       O    -3.65260  -16.62669   10.05263
      H1    -3.46089  -17.53944    9.83907
       H     4.50883  -19.49258    4.69353
       O     3.90250  -19.41851    5.52084
      H1     4.60655  -19.34864    6.24133
       H    -7.88964  -14.29613   -0.71180
       O    -8.01154  -15.09929   -1.26532
      H1    -8.35062  -15.69595   -0.54669
       H    -4.84581  -17.78284   -1.29661
       O    -4.80199  -18.65903   -1.77992
      H1    -5.56250  -18.47750   -2.43700
       H    -4.95561  -15.84712    0.95038
       O    -5.82612  -15.44927    1.10693
      H1    -6.19158  -15.87838    1.88473
       H    -1.92182  -18.85604    7.71575
       O    -2.64324  -18.62879    8.37191
      H1    -3.36122  -19.26229    8.01979
       H     3.22594  -17.89467    4.79809
       O     3.06409  -17.03297    4.45274
      H1     3.33905  -16.47322    5.21726
       H    -2.81659  -10.24989    8.00611
       O    -3.06683   -9.92019    8.91842
      H1    -2.35302   -9.28075    9.06752
       H    -0.56317  -11.16305    7.30131
       O    -1.11439  -10.44570    6.95478
      H1    -0.47399   -9.74862    6.94607
       H    -2.47708  -13.06644    8.44483
       O    -3.13006  -13.02958    7.72699
      H1    -3.11450  -13.96075    7.42861
       H    -1.20950  -13.77662   10.34265
       O    -1.44798  -12.87102   10.00943
      H1    -2.19522  -12.67714   10.60362
       H    -2.10765  -15.87234   10.33855
       O    -1.17133  -15.70346   10.50532
      H1    -0.84292  -16.61716   10.66266
       H    -4.41518  -17.40855    6.92473
       O    -5.10773  -17.99481    6.52911
      H1    -5.92201  -17.40214    6.60490
       H    -8.04095  -15.51175    7.41210
       O    -7.52487  -16.22548    7.02633
      H1    -8.21054  -16.83189    6.60951
       H    -1.59492  -13.19873   -0.43504
       O    -0.89851  -12.80667   -0.95883
      H1    -0.09229  -13.29375   -0.77626
       H    -0.52443  -13.91955    4.82311
       O    -0.02817  -13.09995    4.88263
      H1     0.43215  -12.88422    4.03521
       H   -10.35250  -10.81458    3.69798
       O   -10.68145  -11.45217    4.34698
      H1    -9.95860  -12.12500    4.25492
       H    -6.45531  -15.67981    5.18506
       O    -6.09020  -15.80622    4.27921
      H1    -6.71896  -16.42404    3.92022
       H    -8.80468  -19.07011    7.70562
       O    -8.38293  -19.88259    8.02737
      H1    -7.79582  -19.50103    8.71894
       H    -4.49532  -13.34274   -0.44976
       O    -3.83125  -14.04293   -0.80035
      H1    -3.37071  -14.22206    0.04816
       H    -6.88586  -18.18055    2.38120
       O    -7.56631  -17.52279    2.52297
      H1    -8.19562  -17.97576    3.11986
       H   -10.31446  -17.80068    7.01577
       O    -9.63436  -17.80810    6.36122
      H1    -9.93399  -18.63718    5.90753
       H    -8.04129  -13.11357    5.51231
       O    -8.87927  -13.41527    5.89124
      H1    -9.07866  -14.19716    5.31008
       H    -0.42952  -17.51870    0.57967
       O    -0.12888  -16.91482   -0.13290
      H1     0.78442  -16.86115    0.07442
       H    -2.74677  -15.98649    7.30262
       O    -3.46237  -15.61415    6.75254
      H1    -3.06402  -15.55546    5.85225
       H     2.45557  -19.01631    9.03906
       O     1.58368  -19.40321    8.81649
      H1     1.37087  -19.02980    7.92005
       H     3.44858  -16.10764    7.46484
       O     3.53730  -15.75265    6.58471
      H1     4.28097  -15.14293    6.70704
       H   -12.58157  -17.11010    1.20849
       O   -11.72543  -17.11002    1.75865
      H1   -11.57973  -17.98048    2.03017
       H     0.95418  -14.15040    0.91783
       O     1.03456  -14.43215   -0.02805
      H1     0.43124  -15.17429   -0.13246
       H   -10.33582  -16.67781    1.09328
       O    -9.50199  -16.61527    0.57354
      H1    -8.87781  -17.04397    1.22442
       H    -3.01528  -18.39167    1.03039
       O    -3.44677  -17.58305    0.66940
      H1    -2.65662  -17.10417    0.43732
       H    -5.20728  -11.94324    5.76064
       O    -5.98121  -12.41798    5.41812
      H1    -6.10426  -13.12134    6.12116
       H    -0.04238  -12.04627    9.10948
       O     0.69008  -11.78273    8.52340
      H1     0.82005  -12.57200    7.98716
       H    -4.11494  -17.70637    5.14578
       O    -3.86038  -17.48906    4.23957
      H1    -4.44508  -16.75629    4.13098
       H    -3.62337  -12.20179    4.14269
       O    -3.47087  -12.62479    3.29108
      H1    -4.24392  -13.24085    3.32698
       H    -6.16624  -19.32422   10.16902
       O    -6.88072  -18.89698   10.62362
      H1    -6.99409  -18.06919   10.01330
       H     2.05946  -18.58312    2.37803
       O     1.28944  -17.99810    2.44239
      H1     1.76954  -17.20059    2.72923
       H    -2.07773  -16.21417    3.87421
       O    -1.75256  -15.37728    4.20149
      H1    -2.14997  -14.75619    3.57649
       H    -0.31143  -19.97162    4.32636
       O    -0.53166  -19.03658    4.21782
      H1     0.18694  -18.76607    3.68010
       H    -1.59016  -18.99827   -3.36400
       O    -0.68538  -18.63451   -3.39919
      H1    -0.34968  -18.92807   -4.25647
       H    -4.68466  -18.37947    2.99746
       O    -5.21488  -18.96947    2.38503
      H1    -4.83483  -18.76886    1.47093

