180
frame 12 | Written by MDAnalysis XYZWriter (release 2.4.3)
       H     7.88648   -0.21213  -18.69757
       O     8.08083   -0.92322  -19.30297
      H1     9.02191   -0.74938  -19.54752
       H    10.93810    5.16325  -17.25108
       O    10.32944    4.71271  -17.90499
      H1    10.50436    3.78945  -17.63742
       H    13.54414    2.83889  -10.22800
       O    14.12430    3.26207   -9.59433
      H1    14.44598    2.58449   -8.96599
       H     9.46727   -3.44006  -12.40333
       O     9.17055   -2.82948  -11.69248
      H1     9.35697   -1.91041  -12.01331
       H    12.37524    9.23371  -14.23144
       O    11.78273    9.03516  -15.02191
      H1    12.33416    8.50244  -15.58953
       H    15.01650   -0.77899  -10.88442
       O    15.66721   -0.21649  -11.31356
      H1    16.57269   -0.58404  -11.20514
       H    12.12983   -3.86221  -16.61345
       O    12.82333   -4.51698  -16.81329
      H1    12.91065   -4.94362  -15.94283
       H    13.20351   -0.44598   -9.65558
       O    13.18606   -0.67285  -10.59276
      H1    12.96488   -1.64409  -10.67705
       H     5.44358   -0.41924  -13.32222
       O     5.43921   -1.39324  -13.45558
      H1     6.09152   -1.78606  -12.82178
       H     7.22124    1.48983  -12.19609
       O     7.55808    1.30474  -13.08554
      H1     7.58994    2.18894  -13.52075
       H    11.41972    8.54418  -18.97262
       O    11.98413    7.93685  -18.47102
      H1    12.90606    8.24838  -18.63526
       H    12.39005   -4.45999  -10.94294
       O    12.67059   -3.69861  -11.51172
      H1    11.91705   -3.55982  -12.11101
       H    16.56738    6.06485  -16.67764
       O    17.44536    6.10696  -16.31839
      H1    17.47857    6.65367  -15.50833
       H    14.14262    4.64679  -18.82584
       O    13.98936    3.82672  -18.32154
      H1    13.42530    3.26353  -18.88007
       H    14.87840    1.08417  -11.90878
       O    14.68563    1.98945  -12.35335
      H1    15.40526    2.63350  -12.01161
       H     9.56424    6.28314  -18.02121
       O     8.89418    7.01432  -17.90433
      H1     9.41044    7.73737  -17.51435
       H    11.51744   -1.18313  -14.89675
       O    10.92576   -1.44891  -15.65238
      H1    10.08977   -1.56478  -15.20200
       H     6.06049    0.29878  -16.23915
       O     5.13211    0.31446  -15.90194
      H1     5.15279    0.97960  -15.20636
       H     8.97089    3.26111  -10.59633
       O     9.29420    3.79029  -11.33521
      H1    10.23205    3.63903  -11.25776
       H    14.94166    4.92657  -13.73896
       O    14.03508    5.16649  -13.40863
      H1    13.54601    5.33747  -14.21848
       H    11.25765    1.66341  -16.85857
       O    10.41718    1.86027  -17.40030
      H1     9.76259    1.33072  -16.85928
       H    16.05959    3.77678  -14.60560
       O    16.53028    4.61275  -14.17196
      H1    16.98985    4.97741  -14.91399
       H    12.60128    4.39527  -16.19700
       O    12.14558    5.02332  -15.68837
      H1    11.67510    4.52094  -15.02694
       H    15.34940   -3.70476  -19.10465
       O    16.09980   -4.12008  -19.62410
      H1    15.74863   -5.01172  -19.74500
       H     4.06846    4.84353  -16.88122
       O     3.80335    5.29911  -16.05385
      H1     4.69802    5.50628  -15.73515
       H    14.20711   -3.21793  -17.29403
       O    14.69345   -2.59780  -17.86465
      H1    15.25823   -2.34011  -17.18163
       H    16.56736   -1.45461  -15.33852
       O    16.40015   -2.40453  -15.36895
      H1    15.95231   -2.48470  -14.47894
       H     9.04189    8.16396  -14.58160
       O     9.55064    7.44280  -14.95388
      H1    10.45104    7.78260  -15.03131
       H     7.20098    4.70956  -16.35045
       O     6.71530    5.43106  -16.81118
      H1     7.43900    6.06535  -17.09137
       H     8.52510    3.70058  -14.47478
       O     7.73221    3.35478  -14.89587
      H1     7.14931    3.83906  -14.31655
       H    15.99229   -2.87506  -12.19747
       O    15.29723   -3.17165  -12.86478
      H1    14.60641   -3.61725  -12.27556
       H    10.43631   -2.09876  -17.46781
       O    10.80910   -2.72478  -18.16755
      H1    10.08314   -2.95606  -18.75830
       H     8.93287    0.50890  -12.52737
       O     9.50908   -0.19481  -12.22708
      H1     9.73445   -0.05095  -11.30762
       H    10.74323   -3.57150  -14.17833
       O    10.81816   -4.29462  -13.51794
      H1    10.35345   -5.02543  -13.93121
       H    15.39446    2.85648  -18.39457
       O    16.04911    2.20415  -18.72488
      H1    15.50974    1.37573  -18.59774
       H     7.25132    5.53077  -10.30836
       O     7.68343    6.23732  -10.78973
      H1     8.52306    5.87552  -11.01567
       H     4.48657    2.97717  -13.31351
       O     4.77705    2.67847  -14.16684
      H1     4.10640    2.83760  -14.81738
       H     9.50941    9.00954  -16.27161
       O     9.49700    9.48762  -17.09362
      H1     8.73073   10.02636  -16.83445
       H    10.56155    7.32017  -11.22608
       O    10.29200    6.63808  -11.87536
      H1    10.16666    7.24239  -12.62358
       H    14.64410    8.27223  -15.54975
       O    14.23727    7.53091  -16.01968
      H1    14.33009    7.82855  -16.97026
       H    10.89385   -1.12735  -19.08757
       O    10.64298   -0.24215  -19.47110
      H1    10.48779    0.18994  -18.64122
       H    14.70416    9.16643  -19.09408
       O    14.63735    8.32829  -18.53309
      H1    14.59036    7.66309  -19.25144
       H     5.05126   -3.72305  -16.11655
       O     5.69677   -3.41363  -15.39408
      H1     5.22577   -2.67122  -14.91435
       H     9.56394    5.55182  -14.42011
       O     9.78429    4.65652  -14.08129
      H1     9.68224    4.83098  -13.12683
       H    13.15606    2.09180  -15.55487
       O    12.43231    1.46391  -15.67766
      H1    12.38302    0.97936  -14.87392
       H     7.91490    1.66217  -15.74434
       O     8.22757    0.81859  -16.06423
      H1     8.00885    0.25741  -15.30104
       H    13.31370   -0.81313  -13.11382
       O    12.50438   -0.48454  -13.57711
      H1    12.00761   -0.09297  -12.86072
       H    14.14456   -0.76778  -17.75689
       O    14.25605    0.18144  -17.86563
      H1    13.74749    0.46770  -17.05537
       H    14.81201    7.78814  -11.76993
       O    15.20615    7.45624  -12.57815
      H1    14.48122    6.90803  -12.91866
       H     6.56319    6.01393  -13.74994
       O     6.67111    5.29062  -13.05597
      H1     7.25831    5.72009  -12.44591
       H    18.73811    1.12371  -17.94957
       O    18.11618    1.34684  -17.23843
      H1    17.39003    1.77404  -17.71248
       H    12.21303    4.22786  -12.04784
       O    12.05589    3.32900  -11.70641
      H1    12.62123    2.77716  -12.25713
       H     6.39658    7.91740  -19.99727
       O     6.78763    8.32488  -19.16771
      H1     7.54480    7.81366  -18.82550
       H    12.65959    1.25451  -18.77734
       O    12.52716    1.84815  -19.52419
      H1    11.65399    1.68307  -19.90977
       H     7.26564    4.48798  -18.29991
       O     7.45621    3.84674  -19.06277
      H1     8.42108    3.63254  -18.86403
       H    11.29384   -5.83943  -19.43267
       O    12.18254   -5.42704  -19.40752
      H1    12.06940   -4.77959  -18.72903
       H    17.21093    0.68683  -14.20003
       O    16.99742    0.23166  -15.00036
      H1    17.48314    0.68238  -15.69861
       H     3.82970    0.76683  -17.02722
       O     3.16380    0.83722  -17.79487
      H1     3.22976    1.80293  -17.99627
       H    15.61456    1.67966  -15.26102
       O    14.99600    2.40435  -14.98159
      H1    14.69713    2.06625  -14.09047
       H     8.01651   -2.87795  -15.68004
       O     8.55052   -2.83061  -14.90971
      H1     7.86862   -2.56343  -14.30902

