180
frame 1 | Written by MDAnalysis XYZWriter (release 2.4.3)
       H     4.97032    7.45680  -13.86993
       O     4.52740    7.43003  -13.00869
      H1     3.63219    7.68614  -13.33923
       H    10.43180   12.57868  -17.19092
       O    10.71342   13.01573  -16.40585
      H1    11.65411   12.76908  -16.27242
       H     7.22544   10.72515   -9.24238
       O     6.95164   11.50222   -9.79771
      H1     6.52824   12.05246   -9.12014
       H     3.60940   17.07542  -17.64821
       O     3.90407   17.73180  -18.30110
      H1     3.34527   17.61118  -19.12173
       H     3.20197   10.80425  -12.04012
       O     3.57073   10.96958  -12.94214
      H1     4.47244   10.81431  -12.67926
       H     6.61432   11.97542  -18.04271
       O     6.20937   11.41425  -18.76480
      H1     6.04956   12.12965  -19.45752
       H     6.77660   10.02935  -13.00447
       O     6.90436   10.57966  -13.76093
      H1     7.88216   10.47426  -13.89761
       H     7.90366   16.07854  -15.37993
       O     8.66892   16.02905  -14.78243
      H1     8.64565   16.95481  -14.42467
       H     9.94939   15.98001  -16.11440
       O    10.63712   15.85930  -16.75358
      H1    10.64424   14.87698  -16.79763
       H    -1.58544   16.54804  -14.89292
       O    -0.69422   16.89893  -14.80318
      H1    -0.30260   16.24277  -14.16611
       H     7.05002   18.82288  -13.17363
       O     6.37891   18.68243  -12.52236
      H1     6.04734   19.55536  -12.47800
       H     2.05525    8.54766   -8.60308
       O     1.38780    8.20516   -9.24312
      H1     1.47921    7.22301   -9.09570
       H     7.92330   16.03345  -19.82955
       O     7.47401   16.53323  -19.17214
      H1     8.20903   17.03029  -18.68424
       H     1.93102   16.34979  -12.15018
       O     1.64208   17.15197  -11.59618
      H1     1.70116   17.89590  -12.21766
       H    11.22772   15.29088  -12.53067
       O    11.16721   14.38318  -12.27941
      H1    10.26083   14.16956  -12.02378
       H     7.12730   12.74573  -14.93381
       O     7.57146   13.06904  -15.70994
      H1     8.45801   13.35901  -15.51740
       H     1.12103   13.81365  -16.51465
       O     0.92501   14.71181  -16.55997
      H1     1.66134   15.18642  -16.17713
       H     2.18597   12.26205  -17.60383
       O     2.01752   11.97481  -16.73329
      H1     1.41813   11.21733  -16.81046
       H     2.05982   12.01328  -13.77256
       O     1.20923   12.24335  -14.15472
      H1     1.42286   12.20447  -15.05849
       H     1.19468   10.32018  -11.80952
       O     1.63352   10.49704  -10.96233
      H1     1.61470    9.56219  -10.65889
       H     3.94216    7.53148  -16.64519
       O     3.22141    6.98247  -16.29716
      H1     2.78053    7.58761  -15.67304
       H    -0.41005   12.86675   -8.74470
       O    -0.66518   12.53722   -7.81427
      H1    -0.61707   13.41615   -7.38875
       H     6.91314    6.31106  -15.15454
       O     6.47639    7.11682  -15.55950
      H1     7.27157    7.61060  -15.82866
       H     5.00979   17.23147   -8.26883
       O     4.50549   18.05161   -8.26990
      H1     3.66257   17.71911   -8.63805
       H     1.83253    9.38093  -15.13572
       O     2.29792    8.98855  -14.44705
      H1     2.68363    9.83800  -14.04953
       H     3.77601   11.18144   -9.80604
       O     4.39194   10.41831   -9.80403
      H1     5.20008   10.90468  -10.05685
       H     9.00667   19.32392  -14.28144
       O     8.24500   18.98350  -14.75950
      H1     8.41512   19.36885  -15.64978
       H     0.89679   14.45130  -18.61081
       O     0.25587   14.58599  -19.35145
      H1    -0.57419   14.67195  -18.93860
       H     9.71282    9.18075  -14.58632
       O     9.68925   10.11616  -14.92215
      H1    10.48207   10.48143  -14.50009
       H     0.49936   14.39096  -12.09653
       O     1.11599   14.65206  -12.80904
      H1     1.12794   13.88435  -13.41572
       H     4.37756    8.66348   -7.81633
       O     3.48710    9.03316   -7.75100
      H1     3.53218    9.77439   -8.37731
       H    -0.03095   17.38536  -11.13480
       O    -0.99826   17.56009  -10.87808
      H1    -1.05038   17.50388   -9.92596
       H     5.79445    8.19328  -12.02375
       O     6.67507    8.55972  -11.77836
      H1     6.32082    9.06318  -11.00010
       H     0.16801   10.99127  -13.48207
       O     0.03088   10.18531  -12.98160
      H1    -0.92105   10.21207  -12.83270
       H     0.36683   11.81769  -10.53353
       O    -0.09433   12.65590  -10.33743
      H1    -1.02208   12.48428  -10.65009
       H     4.95513   14.20748  -17.64717
       O     4.80945   13.52337  -16.95901
      H1     4.43325   12.78916  -17.41741
       H     2.59732   18.69028  -14.09258
       O     2.06039   19.14964  -13.43328
      H1     2.73055   19.54663  -12.78924
       H    -0.85700    7.96428  -14.96779
       O    -0.87016    7.77284  -14.04074
      H1    -0.18962    8.32941  -13.66488
       H     6.60281   16.21558   -8.69319
       O     5.83650   15.78137   -8.25813
      H1     5.87012   14.82770   -8.26630
       H     8.69657   11.78634  -11.12096
       O     9.62996   11.81334  -10.97940
      H1     9.70458   11.29930  -10.18200
       H     8.49856   15.01080  -13.17140
       O     8.31461   14.39844  -12.47225
      H1     7.36222   14.51388  -12.21541
       H     7.19438    8.85072   -8.13465
       O     7.87629    9.21983   -8.78439
      H1     8.60021    9.33211   -8.10227
       H     3.72561   15.29214  -15.17347
       O     3.05683   15.91654  -15.54048
      H1     3.68296   16.65627  -15.70329
       H     4.67698    6.00900  -12.26771
       O     5.12931    5.17123  -11.88481
      H1     5.56642    4.98924  -12.70560
       H     0.39813    9.46880  -17.16795
       O     0.23055   10.03349  -16.41188
      H1    -0.71649   10.06221  -16.49362
       H     5.26256   17.82886  -15.17299
       O     4.41552   18.25099  -14.98875
      H1     4.66037   19.16074  -15.21450
       H     6.13166   17.24755  -10.20682
       O     7.07006   17.58799  -10.20942
      H1     6.98022   18.14919  -11.08159
       H     5.39905   13.84172  -12.17186
       O     5.77062   14.37526  -11.43020
      H1     5.15202   15.13243  -11.42069
       H    12.20609   11.38713  -13.07349
       O    11.72984   10.67014  -12.67704
      H1    11.07144   10.97194  -12.03517
       H     1.81118    5.47037  -11.96771
       O     1.44517    6.35782  -11.78617
      H1     0.91542    6.58194  -12.62198
       H     2.30286   12.94691   -8.65051
       O     3.16543   12.87171   -9.11689
      H1     3.07132   13.36863   -9.94184
       H     5.99633   12.13161   -7.18603
       O     5.70661   12.85568   -7.85274
      H1     4.76234   12.94286   -7.73798
       H    -3.06476   15.14791  -17.78667
       O    -2.09200   14.94695  -17.84957
      H1    -1.85031   14.62388  -16.94727
       H     1.03585    8.99346  -19.36389
       O     1.43709    8.45524  -18.64651
      H1     2.36148    8.69245  -18.67120
       H     5.49354    8.44272  -18.03058
       O     4.67052    8.96548  -18.02996
      H1     5.04225    9.85977  -18.27003
       H     6.64735   16.36396  -17.62146
       O     6.60788   16.16349  -16.65143
      H1     6.59296   15.17327  -16.71383
       H     3.66492   17.21902  -11.85192
       O     4.50752   16.88099  -11.48323
      H1     5.07016   17.28149  -12.21837
       H    -0.07881   16.72583  -18.33998
       O     0.06188   17.46167  -17.70750
      H1     0.20678   16.98485  -16.87952
       H     1.30283   16.82920   -8.53893
       O     1.79085   17.58203   -8.87734
      H1     1.83780   17.36395   -9.78284
       H     4.28354   12.80622  -13.88136
       O     4.76452   13.62888  -13.99944
      H1     5.25423   13.39365  -14.80633

