180
frame 3 | Written by MDAnalysis XYZWriter (release 2.4.3)
       H   -19.10821  -16.04852    7.67195
       O   -19.78899  -15.36100    7.76098
      H1   -19.34612  -14.54982    7.41923
       H   -17.38954  -17.32951    8.03079
       O   -18.01126  -17.28911    7.28542
      H1   -18.36857  -18.20741    7.35808
       H    -8.37850  -11.53136    8.14068
       O    -8.07607  -12.16004    8.85047
      H1    -8.57092  -11.85577    9.61503
       H   -10.39777  -10.43651   11.50074
       O   -10.20061  -10.72110   10.62969
      H1   -10.91950  -11.14799   10.21712
       H   -14.19332   -9.56478   10.72682
       O   -13.24190   -9.50700   10.54955
      H1   -13.04562   -8.55961   10.48640
       H    -7.56369  -12.72139    2.16855
       O    -7.81557  -13.39547    1.49072
      H1    -7.24312  -14.17309    1.71260
       H    -4.84893  -16.05308    9.47252
       O    -5.68460  -16.12145    9.92370
      H1    -6.26526  -16.16193    9.11944
       H   -10.94025  -14.49452    0.96289
       O   -11.34135  -13.64486    1.28656
      H1   -10.67757  -13.27551    1.84307
       H   -14.02251  -18.06150    5.86059
       O   -13.74896  -17.77942    6.75449
      H1   -13.30011  -16.94502    6.68062
       H    -9.76932  -15.08634    3.21740
       O    -9.00887  -14.65419    3.65667
      H1    -8.60764  -14.25631    2.86806
       H    -6.83201  -13.34021   10.81673
       O    -6.87472  -14.15660   11.37638
      H1    -6.36878  -14.81685   10.79471
       H   -12.07749  -14.37353    6.56889
       O   -12.35521  -15.20105    7.03208
      H1   -13.25762  -14.96720    7.31587
       H    -9.60087  -19.69184   12.61654
       O    -9.42522  -18.72550   12.77677
      H1   -10.14327  -18.25334   12.22668
       H    -5.50985  -15.39214    1.95387
       O    -6.18395  -15.16817    2.63308
      H1    -5.78040  -15.49097    3.48184
       H   -17.47806  -13.20172    6.81755
       O   -18.30354  -12.96049    7.28051
      H1   -18.20215  -12.03461    7.29606
       H   -13.05553  -11.36035   10.83604
       O   -12.64727  -12.07074   11.32633
      H1   -13.09770  -12.88688   11.09125
       H   -18.10924  -10.31106    8.28155
       O   -17.59358  -10.27951    7.40661
      H1   -17.94178   -9.39574    7.09137
       H   -15.04117  -20.02845   13.07003
       O   -15.36473  -19.14000   13.32227
      H1   -14.86822  -18.52824   12.78143
       H   -15.70932  -14.35505    8.97821
       O   -15.10995  -15.01392    8.56900
      H1   -15.35694  -15.83333    8.91266
       H   -12.05975  -16.45105    3.85830
       O   -11.09094  -16.26193    3.82255
      H1   -10.71357  -16.75598    4.54883
       H   -10.43192  -15.48476    9.72358
       O   -10.72512  -16.30468    9.25451
      H1   -11.34138  -15.87054    8.63378
       H   -16.60521  -10.63867    9.98377
       O   -16.04329  -10.40504   10.72522
      H1   -16.29783  -11.07476   11.40072
       H    -5.36291  -18.66433    6.38090
       O    -5.32801  -18.77109    7.30671
      H1    -6.29141  -18.86404    7.53526
       H    -7.25143  -13.47364    7.66740
       O    -6.62273  -14.17733    7.38824
      H1    -7.24350  -14.92125    7.27279
       H   -15.64934  -18.86449    9.15517
       O   -15.78725  -17.90459    8.92963
      H1   -15.14838  -17.86204    8.24692
       H   -15.60990   -9.98809    7.41228
       O   -14.73496   -9.65998    7.62650
      H1   -14.68467   -9.72164    8.53853
       H   -14.41809  -13.24422    0.16376
       O   -14.48040  -12.94845   -0.72557
      H1   -15.37988  -12.61050   -0.76257
       H   -11.27612  -17.43646   10.65609
       O   -11.49959  -17.78253   11.55063
      H1   -11.69366  -16.99950   12.07337
       H    -8.92463  -16.05503   13.45651
       O    -9.48260  -15.24057   13.66810
      H1    -9.52332  -14.78641   12.81837
       H   -14.09964  -17.84910   11.03070
       O   -14.45470  -17.12922   11.58356
      H1   -15.29787  -16.93285   11.16495
       H   -17.70424  -13.82002   10.28594
       O   -17.05877  -13.35598    9.79027
      H1   -17.56005  -13.15648    8.95888
       H    -9.90400  -11.15059    2.96933
       O   -10.45967  -11.85210    3.27492
      H1    -9.84915  -12.35105    3.90268
       H   -11.99982  -13.72844   13.74624
       O   -11.57144  -12.90098   13.90620
      H1   -12.06407  -12.27331   13.41022
       H    -5.35710  -16.25139    5.80197
       O    -5.36286  -16.59031    4.93953
      H1    -6.24840  -16.94351    4.84445
       H   -13.30249  -15.29222   11.04295
       O   -13.44185  -14.47768   10.54215
      H1   -14.00293  -14.91826    9.89909
       H    -7.82535  -17.93963    8.44070
       O    -7.76379  -18.93175    8.33741
      H1    -7.19248  -19.14163    9.10699
       H    -9.56254  -17.70532    3.03139
       O    -8.68608  -17.42211    2.80713
      H1    -8.66990  -16.50171    3.08612
       H   -12.51984  -16.44740   13.94577
       O   -12.14848  -15.80082   13.36813
      H1   -11.23986  -15.74280   13.78793
       H   -14.27203  -15.45426    3.40657
       O   -14.42525  -15.80882    4.35678
      H1   -14.59724  -15.02798    4.87717
       H   -13.17466  -10.01822   12.30745
       O   -12.86139  -10.00646   13.23630
      H1   -13.42263  -10.77739   13.55483
       H    -9.07610  -16.18613    8.26751
       O    -8.28589  -16.37586    7.68303
      H1    -8.76504  -16.82261    6.96722
       H   -12.34756  -12.05908    6.07739
       O   -12.50962  -12.81278    5.47502
      H1   -11.90243  -12.54443    4.70461
       H    -8.50708  -12.64049    5.87102
       O    -9.30373  -12.87067    5.38872
      H1    -9.11814  -13.77010    5.04523
       H   -15.23683  -13.46370    6.22644
       O   -15.99537  -13.73102    5.71806
      H1   -15.99987  -12.96206    5.14653
       H   -17.43939  -18.47211    3.54156
       O   -18.10183  -18.83052    2.96815
      H1   -17.57562  -18.88680    2.19351
       H   -16.08557  -11.18177    3.40577
       O   -15.83988  -10.98522    4.37679
      H1   -14.89932  -11.06601    4.21365
       H   -15.11318  -14.96589   12.90233
       O   -14.66508  -14.06057   13.05177
      H1   -14.16690  -13.95698   12.20593
       H   -13.46752  -17.74595    0.75713
       O   -12.72550  -17.42014    1.25276
      H1   -12.19493  -18.23703    1.30379
       H   -17.21777  -16.25181   13.47413
       O   -16.83474  -15.65528   12.78444
      H1   -17.56180  -15.74014   12.12134
       H   -10.95497  -16.79954    0.96149
       O   -10.09616  -16.45490    0.67447
      H1    -9.53712  -16.95975    1.22729
       H   -18.22941  -13.52779    4.22287
       O   -18.36620  -12.53473    3.98077
      H1   -18.91404  -12.28344    4.70680
       H   -12.69690   -8.85793    6.11728
       O   -12.59591   -8.42163    5.25087
      H1   -12.49998   -9.18713    4.62963
       H   -11.12182  -13.73480   11.11464
       O   -10.29308  -14.23387   10.93784
      H1    -9.62504  -13.55707   10.90752
       H   -16.55789  -13.40203   12.96329
       O   -16.98159  -12.53241   12.95125
      H1   -16.76178  -12.07546   13.76644
       H   -12.25197  -11.02297    3.14872
       O   -13.03214  -10.45897    3.28949
      H1   -13.09284   -9.84937    2.53006
       H   -13.21950  -10.57736    7.27868
       O   -12.34574  -10.92824    7.37664
      H1   -11.80513  -10.41167    7.99976
       H    -9.21869  -18.91292    5.14381
       O    -9.66832  -18.21860    5.60447
      H1   -10.41605  -18.60176    6.15063
       H   -15.76787  -16.71381    4.54759
       O   -16.39338  -17.42200    4.79475
      H1   -16.60979  -17.29824    5.75872
       H   -13.05208  -14.03625    1.97503
       O   -14.00214  -14.25561    1.84291
      H1   -14.50322  -13.95031    2.58322
       H   -17.48167  -16.22838    4.31237
       O   -18.02490  -15.41656    4.08822
      H1   -18.82208  -15.73257    4.52525

