180
frame 5 | Written by MDAnalysis XYZWriter (release 2.4.3)
       H     6.31943   -1.26422    7.06201
       O     5.84422   -2.13139    7.02836
      H1     5.74780   -2.28034    7.96345
       H    -3.65755    4.25493    5.30810
       O    -3.19523    4.67495    4.52785
      H1    -3.69338    5.50304    4.43463
       H     0.77477   -1.13264    6.07495
       O     0.46741   -0.88217    5.20292
      H1    -0.44283   -1.17507    5.21730
       H    -3.30092   -3.83665    0.18041
       O    -3.32064   -4.73462    0.46931
      H1    -3.82973   -4.75584    1.27425
       H    -0.46740    5.92611    6.83475
       O     0.00925    5.12859    7.11763
      H1     0.98895    5.37971    6.89286
       H    -0.43899   -3.05479    6.76826
       O    -0.08096   -3.90030    6.69704
      H1     0.82694   -3.84962    7.06165
       H    -0.92003   -0.22170   -0.25621
       O    -1.46742   -0.82353    0.31937
      H1    -2.22508   -0.94827   -0.33789
       H    -3.60285   -5.95172    5.46021
       O    -4.06937   -5.07701    5.37445
      H1    -4.93287   -5.23095    5.82663
       H     5.16545   -2.87330    3.06589
       O     4.65367   -3.58736    2.57577
      H1     4.79713   -3.25228    1.67166
       H    -2.59573   -2.56515    9.27656
       O    -2.84833   -3.51006    9.31205
      H1    -3.05965   -3.65550    8.36543
       H     1.58104    1.44014    7.30676
       O     1.54105    1.40554    8.28259
      H1     1.60052    2.33797    8.56584
       H    -0.27401    3.88023    9.33107
       O    -1.03349    3.87959    9.93476
      H1    -0.93301    4.73576   10.34004
       H     1.39253    4.49193    8.21007
       O     2.06858    4.01152    8.65091
      H1     1.98341    4.35222    9.59470
       H    -3.82764    5.17081    8.15733
       O    -3.73875    5.15028    7.18085
      H1    -2.91756    4.63642    7.18017
       H    -3.88421   -0.87785   -2.05873
       O    -3.84035   -1.28013   -1.15708
      H1    -4.08642   -0.49543   -0.65101
       H    -1.25359   -3.96641   10.10355
       O    -0.54054   -4.20909   10.74195
      H1    -0.16449   -5.06134   10.49620
       H    -4.35684   -2.78443   10.63908
       O    -4.73506   -2.28093   11.37988
      H1    -5.04087   -1.54865   10.89138
       H     0.02052   -0.58924    7.75870
       O    -0.90507   -0.74589    7.58961
      H1    -1.35269   -0.52593    8.40139
       H     1.09025    0.88654   10.91675
       O     1.62992    0.13216   10.81686
      H1     1.89112    0.22230    9.85874
       H    -2.82138   -7.39623    4.57850
       O    -2.90718   -7.68146    5.47481
      H1    -2.18613   -7.10188    5.86744
       H     1.07346    0.66395    5.44368
       O     1.47051    1.52857    5.65424
      H1     2.43106    1.33583    5.59124
       H    -1.11039   -5.51342    7.41096
       O    -1.24571   -6.44674    7.39067
      H1    -1.97241   -6.62092    8.06958
       H     3.45546   -3.01488    3.91919
       O     2.79532   -2.33851    4.02650
      H1     2.01913   -2.90454    4.22630
       H    -5.45295   -1.54749    2.80528
       O    -5.42849   -1.83110    1.83838
      H1    -6.33696   -2.07724    1.65866
       H    -6.32404    2.98373    6.89158
       O    -5.39222    3.01988    7.08581
      H1    -5.13175    3.97151    7.13772
       H     5.83146   -1.76894    5.14083
       O     6.28167   -1.68398    4.25942
      H1     7.00512   -2.35008    4.36486
       H    -5.08096   -3.63593    2.50558
       O    -4.83782   -4.53540    2.69594
      H1    -4.59640   -4.54044    3.63483
       H    -2.45011   -1.53541    3.66125
       O    -1.98084   -2.22829    4.17466
      H1    -1.79863   -2.94012    3.53375
       H    -1.84047    2.29989    7.62535
       O    -1.91109    2.79965    6.81068
      H1    -1.05394    3.25434    6.77878
       H     5.25944    1.23596    6.26973
       O     5.76580    1.00856    7.11622
      H1     6.56965    1.53658    7.01597
       H     1.32933    2.69887    4.16362
       O     1.30999    3.46792    3.58954
      H1     1.66502    3.13594    2.73531
       H    -4.78565   -1.10590    7.32239
       O    -5.61892   -0.65121    7.17583
      H1    -5.39560    0.26158    7.13602
       H    -0.65895    4.42846    2.79241
       O    -1.46010    4.96758    2.58178
      H1    -1.99771    4.77070    3.41367
       H     3.95551   -4.92518    7.26031
       O     3.00368   -4.94146    7.19556
      H1     2.88586   -5.91640    7.18750
       H     2.90248   -2.59948   11.64138
       O     2.85421   -1.75808   12.15827
      H1     2.26679   -1.19797   11.55697
       H     0.02999   -0.12970    1.57848
       O     0.86354   -0.10275    2.09736
      H1     0.49004   -0.53514    2.85822
       H     1.82189    5.14307    5.07616
       O     2.34807    5.49832    5.79949
      H1     2.08455    6.43851    5.82838
       H    -0.43121   -3.78597    1.98460
       O    -1.03477   -4.33839    2.54529
      H1    -1.74201   -4.39316    1.89656
       H     2.55701    2.94417    0.22799
       O     2.00392    2.93429    1.01069
      H1     1.23454    2.43413    0.64647
       H     1.52344   -4.21133   10.03081
       O     2.38008   -3.77354    9.82762
      H1     2.62965   -4.22751    9.00935
       H    -2.49645    0.78701    3.94847
       O    -2.87622    0.27452    3.26191
      H1    -3.77443    0.35851    3.43863
       H     0.47485   -7.22394    9.41899
       O     0.56145   -6.26363    9.36340
      H1     0.05776   -6.22499    8.50017
       H     0.60180    2.23965   12.06744
       O    -0.20030    1.92175   11.58482
      H1    -0.51384    2.62850   10.93890
       H     3.20318   -2.13304    7.07538
       O     2.33051   -1.74408    6.92130
      H1     2.25957   -1.81767    5.89639
       H     1.34124   -3.42804    1.18613
       O     0.60482   -2.80541    1.04078
      H1     0.83174   -1.94395    1.48866
       H     1.82469   -5.37968    0.25954
       O     2.16469   -5.12528    1.13033
      H1     3.06401   -4.78389    0.90573
       H     1.38037   -7.24139    4.55879
       O     2.21906   -6.85671    4.51366
      H1     2.17487   -5.89117    4.64953
       H    -2.96136    0.23081    9.57837
       O    -2.25090   -0.42177    9.77086
      H1    -1.96195    0.06469   10.56621
       H    -7.12845   -1.57966    4.43179
       O    -6.17454   -1.85516    4.50618
      H1    -5.99951   -1.56376    5.41574
       H     3.30439   -1.38685    2.61717
       O     3.44895   -0.63682    2.02157
      H1     2.51504   -0.24998    2.06643
       H    -3.49732   -3.95528    6.47453
       O    -3.21114   -3.00944    6.63078
      H1    -2.79772   -2.89975    5.71035
       H     3.47742   -0.70948   -0.01000
       O     2.95119   -0.98577   -0.89157
      H1     3.39702   -0.34662   -1.48570
       H     0.25822   -3.92496    4.92294
       O     0.92657   -4.22232    4.30814
      H1     0.49295   -4.42358    3.54694
       H    -3.10786    0.99054    1.11085
       O    -3.73387    0.99246    0.39316
      H1    -4.21934    1.82317    0.44471
       H     0.66341    0.92614   -1.59433
       O     0.84735    0.59213   -0.68235
      H1     1.57507   -0.01341   -0.83526
       H    -1.17967   -7.53684    2.46024
       O    -1.66336   -6.99691    3.11190
      H1    -1.00641   -6.27721    3.29663
       H    -4.24562    2.16017    9.84731
       O    -3.90989    1.60672    9.14846
      H1    -3.99490    2.24364    8.43497
       H    -4.90099    2.18426    5.05975
       O    -4.99988    1.84636    4.12012
      H1    -4.66630    2.59638    3.59413
       H     5.03986    1.20267    4.12588
       O     4.33290    0.76813    4.61309
      H1     3.86148    0.45954    3.79917
       H    -0.24148   -2.97236   -2.11229
       O    -0.88877   -3.30670   -1.46704
      H1    -0.95920   -2.56672   -0.81661

