180
frame 2 | Written by MDAnalysis XYZWriter (release 2.4.3)
       H   -15.11075  -10.12453   11.58168
       O   -14.19494  -10.03276   11.83500
      H1   -14.15915   -9.07705   11.96411
       H   -17.09720   -1.06055   11.72433
       O   -16.87401   -1.05780   12.67677
      H1   -17.33265   -0.27818   13.01248
       H   -18.61434   -5.95066   16.33430
       O   -18.96212   -6.49607   17.05922
      H1   -18.73678   -7.38831   16.75743
       H   -13.57847  -12.46337   16.15412
       O   -13.70877  -12.12114   15.23420
      H1   -14.10207  -12.93041   14.78036
       H   -19.29023   -1.58338   14.98871
       O   -19.57936   -2.09665   14.22074
      H1   -19.17093   -2.93962   14.28471
       H   -11.81542   -4.10285   15.38191
       O   -11.27424   -3.96151   16.19776
      H1   -11.85246   -4.36943   16.84936
       H   -14.03748  -13.40921   18.21108
       O   -13.81126  -13.77584   17.30722
      H1   -12.88788  -13.91745   17.38753
       H    -8.84944   -7.94545   13.79672
       O    -9.00967   -6.97323   13.97310
      H1    -9.88147   -7.06708   14.37423
       H   -16.73324  -12.87602   16.35699
       O   -16.54484  -12.58884   15.43250
      H1   -15.65108  -12.17851   15.49642
       H   -17.44853  -13.34568    6.69736
       O   -18.38987  -13.09834    6.97714
      H1   -18.30397  -12.18842    7.24741
       H   -19.71905   -8.52796    6.93304
       O   -18.85118   -8.25149    7.17755
      H1   -18.45947   -8.18308    6.31052
       H   -12.46771  -11.78500   11.19625
       O   -11.89107  -12.46969   10.87184
      H1   -12.42460  -13.21714   10.88344
       H    -9.45193   -7.86450   17.00507
       O   -10.37793   -8.13731   17.20619
      H1   -10.24154   -9.10301   17.41317
       H   -19.71188   -5.59149   12.64258
       O   -18.76773   -5.70688   12.71913
      H1   -18.59929   -6.63802   12.57514
       H   -17.46940  -10.54434    8.69595
       O   -17.46323  -10.53950    7.75359
      H1   -18.00082   -9.74420    7.53080
       H   -12.60656   -5.64813   10.23748
       O   -13.19871   -6.33378   10.08896
      H1   -13.17187   -6.54177    9.13334
       H   -16.31546  -14.22016    9.60523
       O   -15.54089  -14.66044    9.17158
      H1   -15.86129  -15.56850    9.42782
       H   -18.37753  -14.02946   15.02004
       O   -19.19557  -14.42649   15.39744
      H1   -19.00115  -15.34027   15.42083
       H   -17.38218  -10.26336   11.67489
       O   -17.03687  -10.66835   10.87242
      H1   -16.89763  -11.57362   11.17897
       H   -18.44173   -5.04064   14.20353
       O   -18.42298   -4.39473   15.01123
      H1   -17.54679   -4.00415   15.06884
       H   -14.24147   -0.75893   13.98888
       O   -14.47519   -1.10360   14.85640
      H1   -13.62796   -1.00431   15.29107
       H   -14.33418   -5.56395   17.54285
       O   -13.36716   -5.52397   17.60304
      H1   -13.13024   -6.45760   17.70066
       H   -15.38611  -10.09907    7.67541
       O   -14.72461  -10.42797    8.29114
      H1   -15.15038  -11.08575    8.77346
       H   -15.63149   -6.51376   12.23579
       O   -15.34768   -6.88784   13.07472
      H1   -15.03305   -6.04249   13.47749
       H   -15.20587   -8.72020   15.76571
       O   -14.83330   -9.40284   16.34671
      H1   -14.53794  -10.08857   15.78177
       H   -13.69073   -8.55756   17.28916
       O   -13.02500   -8.18855   17.92341
      H1   -12.22717   -8.18386   17.40898
       H   -11.88814   -8.06116   14.30512
       O   -11.63074   -7.32188   14.85023
      H1   -11.13780   -7.72400   15.60002
       H   -14.93708  -17.35393   10.75114
       O   -14.75416  -17.18689   11.69490
      H1   -15.61992  -16.86208   11.94800
       H   -18.53260  -13.52213    9.76218
       O   -17.58012  -13.27609    9.92909
      H1   -17.54852  -12.41302    9.58636
       H   -11.63898  -14.44407   13.74900
       O   -11.27464  -13.67682   14.20821
      H1   -12.15205  -13.28863   14.43864
       H   -13.29911  -15.55971   11.36258
       O   -13.43406  -14.69210   10.95720
      H1   -13.92208  -14.79774   10.11951
       H   -13.78963   -7.71257    6.82442
       O   -13.85858   -6.97690    7.47209
      H1   -14.40069   -6.28501    7.10705
       H   -11.29330  -16.40276   13.94097
       O   -11.61626  -16.28766   13.02385
      H1   -10.91633  -15.87562   12.61103
       H   -15.37555   -3.30188   12.86251
       O   -15.02746   -3.09199   11.98182
      H1   -14.10353   -3.38851   11.97281
       H   -16.97893  -16.92101   16.23039
       O   -17.51404  -16.72736   15.44032
      H1   -17.96178  -17.55101   15.16094
       H   -10.93598  -14.32870   16.58075
       O   -11.04701  -13.75432   17.32794
      H1   -10.91644  -12.79778   16.97610
       H   -12.97182   -5.96552   14.75462
       O   -13.50870   -5.22495   14.94394
      H1   -13.44568   -5.30408   15.90213
       H   -12.98441  -10.18680   13.11069
       O   -12.30570  -10.04974   13.81999
      H1   -12.42968  -10.84705   14.37941
       H   -18.29984  -13.69138   16.96960
       O   -17.61950  -13.34535   17.61458
      H1   -18.23479  -12.67471   18.01105
       H   -15.70125  -14.28040    7.38826
       O   -15.91924  -13.71221    6.58642
      H1   -15.14610  -13.08944    6.60185
       H   -15.18789  -16.24317   17.41435
       O   -15.69164  -17.05772   17.47668
      H1   -15.10074  -17.72060   17.10920
       H   -17.48223  -11.23149   15.01998
       O   -17.95789  -10.38131   14.71847
      H1   -17.37147   -9.59691   14.95832
       H   -16.60616   -3.84703   18.24446
       O   -17.46736   -3.70526   17.81053
      H1   -18.06165   -4.14151   18.40423
       H   -16.68713   -3.50426   11.03811
       O   -17.38672   -4.04336   10.71195
      H1   -17.71249   -4.53384   11.48779
       H   -12.04974   -2.64279   10.76381
       O   -12.13716   -3.55254   11.16087
      H1   -11.22686   -3.70964   11.25830
       H   -15.72656   -2.43486   14.79052
       O   -16.01694   -3.34076   14.90290
      H1   -15.16375   -3.80083   15.19855
       H   -13.79306  -15.00888   13.61066
       O   -14.30375  -14.14486   13.47202
      H1   -14.36428  -14.05444   12.49272
       H    -9.65978  -13.26982   13.95878
       O    -8.68597  -13.17710   13.81901
      H1    -8.49608  -13.72416   13.02747
       H   -16.31504   -7.10596   17.89260
       O   -15.96472   -6.39597   17.31680
      H1   -16.71162   -5.76364   17.39268
       H   -15.20338   -2.36367   16.73932
       O   -14.68902   -2.28531   17.53460
      H1   -13.92098   -1.75557   17.30780
       H   -17.07424  -16.41880   13.56813
       O   -17.25301  -16.49705   12.62625
      H1   -18.17618  -16.34175   12.53994
       H   -17.47403  -13.21573   11.61001
       O   -17.23273  -12.80763   12.51736
      H1   -16.71157  -13.39128   13.07249
       H   -19.85529   -3.23930    8.85092
       O   -19.04999   -2.75911    8.94258
      H1   -18.65493   -3.19359    9.70036
       H   -11.61326  -10.54901    7.41537
       O   -11.71812   -9.80678    7.95093
      H1   -12.60165   -9.89033    8.32523
       H   -16.14529   -5.58990   10.13591
       O   -15.93225   -6.56488   10.40031
      H1   -14.96111   -6.56480   10.15059
       H    -9.41048  -10.82507   18.49279
       O   -10.25502  -11.02130   18.07469
      H1   -10.92805  -11.17781   18.78777
       H   -16.46727   -5.98894    7.07132
       O   -16.23102   -5.14356    6.69020
      H1   -17.12975   -4.69444    6.69065
       H   -16.25383   -7.36287   15.69819
       O   -16.84295   -7.82357   15.07712
      H1   -16.46633   -7.49015   14.25820
       H   -19.60079   -1.91171   16.83052
       O   -18.73313   -1.45341   16.99038
      H1   -18.08392   -2.16588   16.89235
       H   -17.59081   -7.33458    9.93091
       O   -18.54811   -7.62488    9.84246
      H1   -18.69623   -7.47204    8.88289

