180
frame 10 | Written by MDAnalysis XYZWriter (release 2.4.3)
       H     8.17741   -0.65714   -0.08458
       O     8.52911   -1.16947   -0.83509
      H1     9.47785   -1.35896   -0.57230
       H     6.51107   -0.85786    3.15736
       O     6.56998   -1.82583    3.21731
      H1     6.97452   -2.05772    2.33303
       H    18.16777    4.37735    6.84067
       O    17.76863    3.44938    6.74838
      H1    16.91174    3.68856    7.06089
       H    10.25405   -2.69711   -2.31230
       O    11.10451   -2.43706   -2.76598
      H1    11.79274   -2.42806   -2.03024
       H     7.12841    3.80484    4.57433
       O     7.00046    2.93048    4.96633
      H1     7.81002    2.57113    5.38061
       H    15.00557    2.97749    2.19233
       O    15.33887    3.65673    1.56994
      H1    16.03877    3.29056    0.99898
       H     7.72728   -2.56557    0.21766
       O     7.13270   -3.06553    0.79306
      H1     6.27800   -2.83885    0.49017
       H    15.44406    3.32535    8.27677
       O    15.05903    4.07346    7.74584
      H1    14.49298    4.52183    8.44141
       H    13.52901   -3.54999   -1.42341
       O    13.32689   -2.60407   -1.30983
      H1    12.82260   -2.51400   -0.50806
       H     9.53473   -5.43439    4.91252
       O     9.81702   -4.51939    4.84289
      H1    10.58945   -4.61732    4.26599
       H    10.89790   -4.03999    6.46461
       O    11.20647   -3.45611    7.18989
      H1    12.14466   -3.48756    7.06454
       H     5.59978   -1.30714    5.95140
       O     5.03910   -0.58420    5.51578
      H1     5.05537    0.14833    6.10886
       H    10.70037    3.95561   -1.91943
       O    11.66070    4.12945   -2.10291
      H1    12.05951    3.64599   -1.36298
       H    13.57311    4.80023    5.34478
       O    13.34332    3.91710    5.60040
      H1    13.81693    3.89301    6.46208
       H    11.93607    3.21269    6.60169
       O    11.21453    3.30845    7.24665
      H1    10.60557    2.68684    6.90156
       H     9.10474   -3.14674    4.15810
       O     9.03028   -2.29306    3.63182
      H1     8.10894   -2.04301    3.77539
       H    16.80808    2.00010   -0.83583
       O    17.06980    2.89504   -0.68363
      H1    18.00572    2.90531   -0.70135
       H    15.69558   -1.46994   -3.80767
       O    15.94405   -0.79305   -3.11032
      H1    15.13495   -0.64684   -2.63588
       H    12.71539   -6.30654   -0.92815
       O    13.24928   -5.48264   -0.87349
      H1    13.73803   -5.56999   -0.07771
       H    11.54047   -4.60691    2.24462
       O    11.84357   -4.45925    3.13585
      H1    12.58083   -4.95265    3.43019
       H    18.23237   -1.13919    2.47139
       O    19.10910   -1.33412    2.02142
      H1    19.80131   -0.97145    2.61675
       H    14.38812    0.04407   -0.40185
       O    14.16678    0.54154   -1.19547
      H1    14.19987    1.47677   -1.01072
       H    13.91413    2.52132    4.45307
       O    14.35173    2.02837    3.75891
      H1    13.95225    1.11153    3.79387
       H    11.51255   -1.47630    0.90180
       O    11.06720   -1.95568    0.15329
      H1    10.91415   -2.86393    0.41624
       H    15.92890   -3.65538    4.50589
       O    16.41916   -4.46278    4.51031
      H1    17.03805   -4.45679    5.23452
       H    13.88013   -2.58889    7.50986
       O    13.88603   -3.28795    6.83058
      H1    13.97076   -2.77595    6.01432
       H    11.41703    5.85704    5.02521
       O    10.71224    5.41080    5.44675
      H1    11.03164    4.71611    6.02713
       H    16.63590    1.61360    9.40038
       O    16.04415    2.36214    9.54872
      H1    15.16039    1.96108    9.70901
       H     8.86483    1.51333    7.28459
       O     9.06955    1.77438    6.37425
      H1     9.41304    1.03586    5.87568
       H     7.74830    0.97556    2.79659
       O     6.82164    0.98604    2.98951
      H1     6.69370    1.64221    3.67746
       H    16.18793   -3.86685    2.71619
       O    15.85051   -3.62930    1.84375
      H1    16.60200   -3.77211    1.21095
       H    11.35284    0.92192   -0.90026
       O    10.90268    1.26849   -0.10309
      H1    10.36581    2.01568   -0.46800
       H    17.39086   -0.79775    5.23582
       O    16.82339   -0.51287    4.46528
      H1    16.88383    0.40158    4.16595
       H    12.81136   -0.05435   -2.00454
       O    11.89819    0.05035   -2.38054
      H1    11.61377   -0.85275   -2.54605
       H    14.33146   -5.06638    7.51633
       O    14.77147   -5.83751    7.92674
      H1    15.46804   -5.98447    7.29999
       H    11.44892   -4.88366   -0.10939
       O    10.85827   -4.61180    0.60928
      H1    10.10186   -5.24577    0.64774
       H    10.54989    2.99037    2.95692
       O    11.38109    2.49347    2.91017
      H1    12.02412    3.04922    3.33926
       H    12.49298   -3.00322    2.57238
       O    12.85026   -2.12397    2.30655
      H1    12.52214   -1.52813    3.02122
       H    13.25654    7.22955    4.11797
       O    13.38248    6.61321    4.84628
      H1    13.06479    7.06401    5.62996
       H     8.57319   -1.09941    9.52321
       O     8.21157   -1.16656   10.46113
      H1     8.26938   -2.08783   10.77520
       H    15.26266   -6.22090    1.00033
       O    14.48620   -5.80570    1.53446
      H1    14.89900   -4.93998    1.79712
       H    17.96053   -2.70004    6.54249
       O    18.41422   -1.84306    6.40511
      H1    19.17766   -1.96539    5.79513
       H     8.87219    3.28970   -2.22898
       O     9.17089    3.03548   -1.37852
      H1     8.49195    3.42882   -0.79896
       H     9.19166   -2.15545    7.60262
       O     8.72438   -1.30870    7.71424
      H1     7.98087   -1.39609    7.11682
       H    15.47313   -1.54707    1.27959
       O    15.08005   -0.61709    1.23842
      H1    14.25617   -0.73344    1.70857
       H    13.04634   -2.44701    9.67535
       O    12.74376   -1.81417    8.99875
      H1    12.07668   -2.23024    8.57678
       H    10.55962    6.69028    8.72573
       O    11.23015    6.52689    8.05555
      H1    10.70265    6.20268    7.29210
       H    17.09274    3.51222    3.16206
       O    17.83689    3.65520    3.82208
      H1    17.45330    3.40303    4.67130
       H    11.01644    3.04456    9.76462
       O    11.19323    2.74320   10.67954
      H1    10.54869    2.07507   10.88948
       H    15.39252   -1.44263    4.36268
       O    14.76215   -2.21454    4.43991
      H1    14.18744   -2.19017    3.68884
       H    10.91539    8.33948    3.16657
       O    10.84981    7.50196    2.73685
      H1    11.75037    7.24359    2.51884
       H    10.93000   -5.13178    7.76177
       O    10.81499   -6.11557    7.67423
      H1    11.03201   -6.37367    8.56936
       H     6.31418   -2.98684    7.31460
       O     6.60319   -2.90357    6.41349
      H1     7.20923   -3.65980    6.22517
       H    11.78006    0.87890    3.58699
       O    12.28242    0.15121    3.98774
      H1    11.73041   -0.28743    4.68492
       H    12.64025    1.53955   10.34452
       O    13.58838    1.32670   10.33922
      H1    13.55958    0.37948   10.18794
       H     7.73745    2.56557    9.58640
       O     8.31337    1.86450    9.19899
      H1     7.95536    1.06485    9.62069
       H    13.95026    4.98037   -1.07832
       O    13.76543    5.12958   -0.17563
      H1    14.45186    4.63363    0.31468
       H     8.45485    4.47662    2.56561
       O     8.27564    4.72045    1.67355
      H1     7.43468    4.30041    1.42203
       H     9.77872   -0.89455    6.39239
       O    10.28653   -0.64036    5.58187
      H1     9.94414   -1.29788    4.94747
       H    10.02599    0.72452    1.18326
       O     9.39322    0.32355    1.77690
      H1     9.70369   -0.60770    1.95164

