180
frame 0 | Written by MDAnalysis XYZWriter (release 2.4.3)
       H     7.95161  -15.91013    6.07932
       O     8.35913  -15.55775    6.88953
      H1     9.04955  -14.98078    6.49648
       H     3.31073  -17.62890   -1.93134
       O     3.49057  -18.44391   -1.48627
      H1     3.63184  -18.21394   -0.51614
       H     6.95201  -18.80849    7.14602
       O     6.02020  -18.58339    6.76919
      H1     6.27044  -17.92760    6.09961
       H     8.00473  -13.21209    2.37071
       O     8.95168  -12.93408    2.52046
      H1     8.92967  -11.91518    2.75436
       H    10.61731  -17.36111    7.38088
       O     9.99462  -17.27960    8.08505
      H1     9.34736  -16.71223    7.62746
       H     1.94125  -14.49016    6.78356
       O     1.51955  -13.66589    7.07585
      H1     0.99854  -13.36477    6.25914
       H    -0.50013  -15.72176    8.44783
       O    -0.19015  -15.59215    7.55356
      H1     0.59364  -15.00378    7.63939
       H     3.74976  -10.93475    6.61981
       O     4.07199  -11.06615    7.50570
      H1     4.92828  -10.61074    7.43340
       H     0.59656  -18.08089   10.01459
       O     0.11135  -17.68594   10.76254
      H1    -0.53790  -18.38259   11.03204
       H     0.31713  -17.40043    7.14783
       O     0.09983  -18.30124    7.26633
      H1    -0.10310  -18.58332    6.38991
       H     2.01787  -17.48885   12.57851
       O     1.61997  -18.27036   13.06771
      H1     0.69073  -18.20880   12.71398
       H     6.85475  -11.09461    5.92507
       O     6.47739  -11.26458    5.01542
      H1     6.20559  -12.20841    4.97805
       H     1.65384  -12.38126    2.15888
       O     0.67531  -12.35171    1.97166
      H1     0.42694  -11.49897    1.48496
       H    -4.45533  -17.64688   10.99526
       O    -3.79140  -17.06727   10.60480
      H1    -3.34965  -17.62948    9.98260
       H     4.73586  -10.94579    4.95468
       O     3.82142  -10.81284    4.80265
      H1     3.66711  -11.19069    3.93360
       H     3.89067  -19.94966    4.58548
       O     3.44628  -19.36622    5.27943
      H1     4.15272  -19.34266    5.93693
       H    10.76764  -16.86303    0.76720
       O    10.40584  -16.06338    1.22450
      H1    10.32641  -15.36082    0.54225
       H    -1.64509  -18.64586    8.37966
       O    -2.60155  -18.50531    8.61339
      H1    -2.98543  -18.82288    7.78839
       H     5.44608  -12.05498   11.69546
       O     5.78084  -12.00343   10.84042
      H1     5.93213  -12.91254   10.61868
       H     4.11195  -15.33569   -0.76646
       O     4.89289  -15.57613   -0.24329
      H1     5.39627  -14.78378    0.01075
       H     9.57276  -16.71206    2.95720
       O     8.83247  -17.28262    3.12767
      H1     8.38988  -17.33174    2.30737
       H     5.08786  -18.27982    8.28266
       O     4.27914  -18.04321    8.77771
      H1     4.50751  -18.04010    9.67790
       H     7.42898  -17.04596   -0.75208
       O     7.46844  -16.46155   -1.48038
      H1     6.81639  -15.83084   -1.19042
       H     3.29146  -17.79740    4.66425
       O     3.16187  -16.84799    4.58461
      H1     3.16890  -16.53475    5.49857
       H    -1.73173  -19.53064    0.91631
       O    -2.23744  -19.28457    1.77386
      H1    -1.53480  -19.09258    2.36932
       H    -1.35592  -13.73181    9.83640
       O    -1.38970  -12.82086    9.48556
      H1    -2.16939  -12.44680    9.96272
       H    -2.24753  -15.69675   10.35252
       O    -1.34713  -15.41421   10.07360
      H1    -0.83105  -16.22262   10.40323
       H     6.24756  -13.24152    7.82441
       O     7.13889  -13.22229    8.12400
      H1     7.47640  -14.05181    7.68383
       H     4.60445  -16.56957    2.12302
       O     5.12164  -16.37403    2.89551
      H1     4.42972  -16.56171    3.58090
       H    -0.35798  -14.19449    4.49593
       O     0.26386  -13.45836    4.52797
      H1     0.24378  -12.88634    3.69868
       H     5.54524  -12.01942   -0.02349
       O     5.05763  -12.82131    0.33466
      H1     4.49027  -13.05337   -0.39828
       H     9.33718  -19.29709   11.12312
       O     8.71739  -18.96472   11.75980
      H1     7.87480  -19.04895   11.27560
       H     9.87506  -20.14359    4.28978
       O     9.71006  -19.20930    4.65411
      H1     9.48290  -18.72179    3.85503
       H    13.15698  -19.01114    2.49222
       O    13.09106  -18.16781    2.96217
      H1    12.28989  -18.38573    3.49973
       H     5.63005  -15.21199   10.77504
       O     4.79841  -15.02916   10.32726
      H1     4.11763  -15.27423   10.97586
       H     7.74515  -16.04325   11.68630
       O     6.80469  -15.98969   11.89535
      H1     6.93293  -15.89511   12.84314
       H     5.97285  -13.45528    1.86895
       O     6.47995  -13.96948    2.49685
      H1     5.99125  -14.78729    2.60329
       H     0.39917  -17.42704    0.49023
       O     0.74662  -17.13531   -0.40972
      H1     0.21502  -17.71047   -0.96937
       H    -1.92009  -15.57739    6.69873
       O    -2.79101  -15.32392    6.35190
      H1    -2.56312  -15.42200    5.37342
       H    12.35128  -16.28281    6.53069
       O    12.07900  -17.13433    6.09661
      H1    12.81449  -17.73178    6.25872
       H    11.63987  -19.24057   10.69895
       O    10.89668  -19.18346   10.07032
      H1    11.08076  -18.36958    9.61529
       H    10.51075  -14.57326    4.91615
       O     9.68815  -14.19949    5.16366
      H1     9.47608  -13.96387    4.23850
       H     6.18662  -16.74784    4.29760
       O     6.82949  -16.84806    5.02122
      H1     7.58524  -17.09488    4.38086
       H     2.69274  -18.83555    9.04279
       O     1.77593  -19.14813    9.16269
      H1     1.51356  -18.92535    8.22410
       H     3.42681  -16.60805    7.76014
       O     3.11598  -15.92879    7.09815
      H1     3.62757  -15.13824    7.41212
       H    11.45940  -15.95770    3.14886
       O    11.75954  -15.38708    3.89642
      H1    12.08119  -16.03313    4.56098
       H     1.55842  -14.31928    0.75835
       O     1.28444  -14.46612   -0.16938
      H1     1.05788  -15.42399   -0.13576
       H    -2.51790  -17.19504    0.78278
       O    -3.22021  -16.54158    1.00488
      H1    -3.54599  -16.94797    1.83576
       H     0.00895  -12.07037    8.95113
       O     0.74804  -11.48502    8.79703
      H1     1.26126  -11.95821    8.16067
       H    -4.18748  -17.71624    4.46454
       O    -4.33395  -17.22795    3.60678
      H1    -4.95362  -16.51014    3.94211
       H     5.41783  -19.02489   11.86589
       O     5.89049  -18.59887   11.10757
      H1     6.10373  -17.68441   11.43838
       H     1.71461  -18.60620    3.07636
       O     1.17090  -17.82349    3.04879
      H1     1.67919  -17.16054    3.55927
       H     9.32353  -17.41081   11.09941
       O     9.43035  -16.37947   11.06530
      H1     9.83102  -16.33675   10.17080
       H     2.48904  -15.38863   13.06800
       O     3.26688  -15.73801   12.60132
      H1     3.98558  -15.24691   13.07894
       H    -2.48717  -16.35340    3.81247
       O    -1.67103  -15.81850    3.91776
      H1    -1.42637  -15.49574    3.04014
       H    -0.38531  -19.73646    4.54592
       O    -0.73334  -18.79858    4.68529
      H1    -0.03512  -18.24584    4.26590
       H     4.64017  -14.12869    8.77696
       O     4.51317  -13.84067    7.78493
      H1     4.04617  -13.00366    7.97508
       H     5.17125  -18.20262   -2.32289
       O     5.95300  -18.22516   -2.90176
      H1     6.67068  -17.75138   -2.49649
       H     8.28470  -18.50572    0.38241
       O     7.45292  -18.19359    0.79910
      H1     6.93293  -18.99289    0.63635
       H     8.76665  -19.34684    6.24571
       O     8.54272  -19.51634    7.21125
      H1     8.90978  -18.68588    7.55442

