180
frame 1 | Written by MDAnalysis XYZWriter (release 2.4.3)
       H    -2.50972  -10.24697  -14.16942
       O    -1.97818   -9.63517  -13.59098
      H1    -2.31625   -9.90189  -12.73687
       H    -5.70123   -8.23738  -11.64253
       O    -6.10035   -8.42115  -10.74320
      H1    -5.86094   -7.63375  -10.22464
       H    -4.32914  -12.45706  -16.04326
       O    -4.83235  -13.22987  -16.35891
      H1    -5.64949  -12.81946  -16.62151
       H    -2.26060   -3.40530  -13.67061
       O    -2.57066   -2.58535  -14.13136
      H1    -2.22224   -1.88933  -13.52383
       H    -2.33839  -11.42165  -15.96573
       O    -3.08954  -11.29053  -15.32287
      H1    -2.87652  -12.02127  -14.68260
       H    -1.95366  -11.22386  -18.16830
       O    -1.50923  -11.17386  -17.28278
      H1    -0.60136  -11.35957  -17.46235
       H     6.35666   -6.56258  -11.40083
       O     7.26752   -6.32374  -11.74761
      H1     7.05179   -5.70043  -12.46352
       H    -1.58460  -10.19556   -8.63449
       O    -1.51735  -10.41166   -9.59102
      H1    -1.79072  -11.32752   -9.48658
       H     2.15569  -13.28227  -11.99512
       O     3.04796  -13.15612  -12.36326
      H1     2.90739  -13.47543  -13.24730
       H     2.10486  -12.08551  -17.22501
       O     2.99704  -11.78527  -17.29552
      H1     3.22547  -12.20928  -18.12803
       H     0.21931  -14.75040  -17.28969
       O     0.59220  -14.75917  -16.42067
      H1    -0.14620  -14.96662  -15.82969
       H     0.72438   -2.59236  -12.67530
       O     0.60599   -3.00698  -11.77008
      H1     1.12537   -3.76557  -11.88317
       H     4.02935   -1.86381  -19.12780
       O     3.17743   -1.67109  -19.57429
      H1     2.88482   -2.54161  -19.83811
       H    -7.03179   -5.77310  -12.94580
       O    -6.30890   -5.19838  -12.58656
      H1    -6.60898   -5.13985  -11.71379
       H     3.69205   -6.51908  -18.67899
       O     4.58452   -6.86769  -18.87565
      H1     4.65085   -7.02799  -19.83863
       H    -3.33179   -5.39995  -11.85344
       O    -3.34936   -6.28778  -11.41362
      H1    -4.09637   -6.29366  -10.73865
       H     0.88865   -1.76861   -8.53957
       O     0.67668   -1.33661   -9.34056
      H1     0.51212   -1.95272  -10.05201
       H     3.03261   -4.10139   -9.67526
       O     2.24393   -4.57288  -10.06951
      H1     1.66935   -4.59539   -9.28991
       H    -1.02902   -7.83197  -12.73154
       O    -0.35531   -7.08050  -12.75134
      H1     0.36370   -7.36381  -12.20284
       H     4.07336   -4.59408  -14.86965
       O     4.21194   -5.43747  -15.23590
      H1     5.17680   -5.49639  -15.26415
       H     2.35875   -9.86181  -11.30578
       O     1.73997   -9.40432  -10.75248
      H1     2.03562   -8.45753  -10.83772
       H     2.18151   -6.14572  -10.79862
       O     2.16801   -7.01544  -11.21573
      H1     2.63967   -6.83001  -12.05532
       H    -6.61245   -9.65228  -13.57637
       O    -7.58886   -9.84340  -13.60880
      H1    -7.98111   -9.02536  -13.39652
       H    -0.89666   -2.11700  -16.48620
       O    -1.22195   -3.00110  -16.52647
      H1    -1.67658   -3.09155  -15.65687
       H    -2.82408  -10.01887  -10.66291
       O    -3.46032  -10.20312  -11.36854
      H1    -4.16199   -9.47947  -11.18530
       H     2.42580   -2.16622  -11.48508
       O     3.25878   -1.98056  -11.97023
      H1     3.17091   -1.03071  -12.08928
       H    -3.07816   -7.20487  -16.19352
       O    -3.96558   -7.41002  -15.81963
      H1    -4.42313   -7.85976  -16.55397
       H    -2.10102  -14.18543  -13.71675
       O    -2.47183  -13.29789  -13.64020
      H1    -1.65855  -12.96056  -13.22224
       H    -1.10283   -4.08560  -12.03110
       O    -1.74429   -4.52522  -12.65075
      H1    -1.40883   -5.45132  -12.56347
       H     0.36116   -6.37339  -15.79519
       O     0.33538   -7.27920  -15.46472
      H1     0.09450   -7.04337  -14.52287
       H    -2.69362   -3.44324  -17.36970
       O    -3.35848   -3.61775  -18.06502
      H1    -3.33930   -2.90392  -18.70234
       H     4.78798  -13.23789  -19.34733
       O     4.41786  -12.38954  -19.66502
      H1     4.90220  -11.65380  -19.23748
       H     1.25573   -5.59976  -18.83815
       O     2.11079   -5.27875  -18.50844
      H1     2.28341   -4.60722  -19.21181
       H     1.61894   -8.43076   -8.07643
       O     0.73806   -8.84184   -8.18807
      H1     0.67165   -9.21055   -9.03742
       H     5.70336   -8.85914  -13.14604
       O     6.34531   -9.57347  -13.20303
      H1     7.01436   -9.16999  -13.72137
       H    -1.33537   -9.25700  -16.92491
       O    -1.49969   -8.31871  -17.19386
      H1    -1.15595   -7.77145  -16.41681
       H     5.74631   -9.87429  -19.22514
       O     6.00053  -10.61606  -18.65920
      H1     5.61598  -10.54390  -17.75697
       H     3.95448   -2.69539  -13.58026
       O     4.32785   -2.89030  -14.41753
      H1     4.69349   -2.05129  -14.77934
       H    -0.31123   -5.18510   -8.69625
       O     0.42468   -4.85237   -8.13672
      H1     0.47401   -5.46928   -7.39777
       H     1.05543  -13.51563  -19.47293
       O     0.97063  -12.59454  -19.06511
      H1     0.47138  -12.18866  -19.78965
       H     2.38738  -14.30394  -15.72995
       O     2.88874  -13.92409  -15.03150
      H1     3.58502  -13.52982  -15.51252
       H    -1.96638   -6.76959  -10.07960
       O    -1.23567   -6.64067   -9.46710
      H1    -0.62471   -7.37775   -9.70110
       H     6.62632   -3.99157  -14.11839
       O     7.22204   -4.52513  -13.57225
      H1     7.92867   -3.83050  -13.48711
       H     6.53548   -7.16547  -16.67923
       O     6.50107   -6.29701  -17.00832
      H1     5.63691   -6.23891  -17.49666
       H     1.57475   -8.87714  -14.88718
       O     2.11172   -9.47302  -14.29959
      H1     1.47205  -10.14988  -14.06346
       H    -4.23186   -8.25436  -13.64187
       O    -5.11776   -8.16383  -13.30041
      H1    -4.98366   -7.22725  -13.10512
       H    -0.18045  -12.72329  -12.17132
       O     0.06755  -13.62581  -12.36200
      H1    -0.53530  -14.08784  -11.73910
       H     5.02824   -6.97796   -9.89051
       O     5.16956   -7.63270  -10.59206
      H1     4.44927   -7.59002  -11.22886
       H    -4.33329   -2.83665  -13.80517
       O    -4.99236   -2.64651  -13.12398
      H1    -5.56690   -3.43042  -13.18402
       H    -0.51545  -10.32197  -13.08992
       O     0.17303  -10.94590  -12.73748
      H1     0.62709  -10.44370  -11.99881
       H     4.08669   -6.94521  -13.80112
       O     3.91923   -7.68156  -13.15969
      H1     3.20435   -8.19554  -13.61437
       H     3.12444  -10.04169  -17.96487
       O     3.05145   -9.52280  -18.77641
      H1     3.81930   -8.94263  -18.70334
       H     0.40365    0.44679  -16.54957
       O     0.22259   -0.50077  -16.72414
      H1    -0.32887   -0.31906  -17.53776
       H    -4.47751  -10.21415  -16.10829
       O    -4.80491   -9.98695  -16.96452
      H1    -4.08038   -9.98608  -17.56277
       H    -6.20952   -4.95587  -16.34539
       O    -6.06333   -4.35902  -17.13957
      H1    -5.15376   -4.06154  -17.08487
       H     1.21122   -4.79737  -16.87233
       O     0.75648   -4.77847  -16.03036
      H1     0.04612   -4.11471  -16.16869
       H     3.69236  -10.86251  -15.96906
       O     4.56342  -10.50785  -15.73883
      H1     4.34309   -9.90204  -15.00189
       H    -7.49154   -6.67815  -15.91765
       O    -7.08279   -6.41554  -15.11517
      H1    -6.65809   -7.27534  -14.78624
       H     4.03961  -11.66206  -11.92046
       O     4.19019  -10.84207  -11.48215
      H1     4.75191  -10.26514  -12.03990
       H     1.25155   -3.16561  -14.91612
       O     0.83656   -2.37831  -14.50503
      H1     0.76314   -1.74022  -15.30064

