180
frame 8 | Written by MDAnalysis XYZWriter (release 2.4.3)
       H    -2.37745   15.99933   -1.47278
       O    -2.44532   16.93607   -1.26811
      H1    -1.73851   16.98351   -0.59703
       H    -3.13409    9.47354   -2.06480
       O    -3.71953    9.03828   -2.72083
      H1    -3.35333    9.37606   -3.55106
       H    -5.23958   18.17538   -8.37051
       O    -4.24958   18.13866   -8.42950
      H1    -3.78665   18.57479   -7.64766
       H    -2.94144   10.84781   -7.64198
       O    -3.26192   10.57643   -8.53430
      H1    -2.63206   11.14259   -9.01272
       H    -3.75565   16.66896   -4.40435
       O    -3.10284   15.97856   -4.30439
      H1    -3.70855   15.23867   -4.02366
       H    -4.32085    8.23405    0.89465
       O    -3.87853    7.58761    0.24608
      H1    -3.50046    6.94324    0.86512
       H     2.16658   10.80969   -0.07613
       O     1.25722   11.02146   -0.27789
      H1     1.03949   10.24438   -0.82501
       H    -6.37258   14.58551    4.20321
       O    -6.16624   15.31615    4.83927
      H1    -6.54841   16.02940    4.34537
       H    -5.30586   12.39112   -7.47923
       O    -4.61479   12.90493   -7.07805
      H1    -5.11299   13.45014   -6.42809
       H     1.17708   15.35087   -1.88711
       O     1.64104   16.17161   -1.96093
      H1     0.85425   16.78179   -1.95855
       H    -5.74880   17.96346   -4.83233
       O    -5.51253   17.17064   -4.39517
      H1    -5.93044   16.46176   -4.94402
       H    -0.26397   18.35937   -0.27929
       O    -0.62326   18.07061    0.58871
      H1    -1.34326   18.77132    0.70583
       H    -6.71240   18.64704   -1.21221
       O    -6.18333   18.68181   -0.36522
      H1    -6.23383   19.64402   -0.11975
       H    -8.90317   15.23797    0.12367
       O    -8.20109   15.81677    0.46409
      H1    -7.72869   16.00021   -0.42390
       H    -1.61974   10.29180    2.12602
       O    -2.08784   11.10270    2.28614
      H1    -2.16116   11.05753    3.22344
       H    -3.75609   14.08220    0.70284
       O    -4.48113   14.50828    0.16276
      H1    -5.28536   14.18846    0.52611
       H    -3.76956   18.90361    1.03226
       O    -3.05941   19.54967    1.10523
      H1    -3.07148   20.00965    0.23943
       H    -7.61943   16.34427   -2.61245
       O    -6.88860   16.72721   -2.11671
      H1    -6.21169   16.85056   -2.86439
       H    -1.79295   16.94312   -3.98906
       O    -1.19240   17.72003   -4.04319
      H1    -0.52004   17.46819   -4.65920
       H   -11.53901   12.35077   -2.29515
       O   -11.10911   12.58081   -1.44337
      H1   -11.62366   12.21592   -0.74437
       H    -7.77363   11.91708    2.02990
       O    -7.42429   11.36395    1.28823
      H1    -6.68096   10.98194    1.72910
       H    -4.94082   10.49873    0.86597
       O    -4.98367    9.88320    1.60982
      H1    -4.19374   10.19037    2.08255
       H    -7.11542    9.27485   -0.84472
       O    -8.03292    9.10484   -0.49825
      H1    -8.03665    9.67731    0.25703
       H    -4.47028   14.26447   -1.98593
       O    -4.13974   13.88646   -2.86528
      H1    -3.13109   13.90050   -2.69249
       H    -1.21209    7.60651   -0.86896
       O    -1.27941    8.28374   -0.22489
      H1    -2.17448    8.19478    0.17270
       H     1.94633   12.87405   -2.62486
       O     1.19386   13.17819   -2.12407
      H1     1.11740   12.50540   -1.44812
       H    -3.75104   11.74061   -0.70092
       O    -4.66902   11.53893   -0.57364
      H1    -5.00650   12.30138   -1.05220
       H    -0.81004   13.67629   -2.20745
       O    -1.39124   14.40974   -2.51684
      H1    -1.29999   14.28157   -3.49372
       H     2.49802   14.27722   -5.23181
       O     2.28733   13.75002   -6.01053
      H1     1.46557   13.36199   -5.68180
       H    -1.03932   13.66027   -5.95334
       O    -0.72084   13.13788   -5.15842
      H1    -1.47826   12.58425   -5.01836
       H    -8.83322   14.70412   -6.98395
       O    -8.42090   13.92166   -6.57114
      H1    -8.73438   13.73840   -5.67565
       H    -1.77875   15.72021   -7.91709
       O    -1.30395   15.56099   -7.12193
      H1    -2.08305   15.65833   -6.48983
       H    -3.97207   16.41797    4.51405
       O    -3.45076   17.18591    4.32816
      H1    -4.14994   17.79452    4.11300
       H    -7.62213   12.02679   -3.80415
       O    -6.62987   12.03229   -3.82610
      H1    -6.56110   11.09754   -3.43650
       H    -8.70366   18.53357   -0.94134
       O    -9.17692   18.20943   -0.12514
      H1    -8.69401   17.37264    0.11464
       H    -5.09637   13.97006   -9.65081
       O    -4.07456   13.94637   -9.72619
      H1    -3.94102   13.60157   -8.79890
       H    -7.08620   14.46176   -5.70801
       O    -6.20212   14.61127   -5.30635
      H1    -6.27389   14.08015   -4.51338
       H    -6.30351   12.68672    4.32305
       O    -6.98429   12.79432    3.63614
      H1    -7.71660   13.25639    4.20177
       H    -8.48396   13.85021   -2.94819
       O    -8.91049   14.39238   -3.64657
      H1    -9.55884   13.76092   -3.94143
       H    -2.96715    7.21202   -2.22821
       O    -2.49022    6.37008   -2.38414
      H1    -3.14617    5.97054   -3.00614
       H    -8.80774   16.31072    3.38789
       O    -8.34157   15.46403    3.15586
      H1    -8.17586   15.50707    2.16769
       H    -4.76320   18.87522   -1.48770
       O    -3.89715   19.12289   -1.85826
      H1    -3.42564   18.37362   -1.57373
       H    -1.39708   10.03933   -0.88085
       O    -1.75201   10.92817   -1.01125
      H1    -1.17673   11.49151   -0.46572
       H    -5.78543   10.38444   -1.54689
       O    -6.19590    9.82197   -2.15418
      H1    -5.46205    9.32751   -2.54590
       H    -9.37567   10.70266   -5.01431
       O    -9.31788   11.34132   -4.31349
      H1    -9.45170   10.83266   -3.48583
       H   -11.17751   14.35897   -0.99538
       O   -10.82155   15.15248   -0.48275
      H1   -10.98903   15.89692   -1.12471
       H    -3.81554   12.57980   -4.27806
       O    -3.42099   11.81405   -4.75585
      H1    -3.87945   11.82793   -5.58420
       H    -2.09083   12.76411    1.59210
       O    -2.17952   13.52508    0.97667
      H1    -1.42895   14.07239    1.26002
       H    -2.58919   18.94196   -5.06281
       O    -3.20843   18.86591   -5.85435
      H1    -3.95823   19.27080   -5.42329
       H    -0.38962   18.29964   -2.40576
       O     0.27892   18.76778   -1.88535
      H1     0.90874   18.82924   -2.62454
       H    -5.31080   17.25554    0.51527
       O    -4.73869   16.92776    1.21791
      H1    -4.54096   16.06419    0.91574
       H    -7.26561   12.37306   -0.71817
       O    -7.07694   13.03686   -1.42982
      H1    -7.08171   12.42066   -2.17197
       H    -7.21612   10.90623   -7.27382
       O    -6.65919   11.21884   -8.01776
      H1    -7.33201   11.79249   -8.41238
       H    -0.23863   15.15297    2.52965
       O     0.05717   14.24703    2.40260
      H1     1.03757   14.43649    2.24244
       H     0.96756   17.42245   -6.65949
       O     0.07565   17.61035   -6.39090
      H1    -0.53819   16.97412   -6.86970
       H   -10.30738   11.17717   -1.84311
       O    -9.98136   10.24919   -2.02761
      H1    -9.58983    9.90771   -1.26164
       H    -0.74719   17.19633    2.19491
       O    -0.96073   16.79040    3.07197
      H1    -1.86266   16.93001    3.34433
       H    -0.07720   11.66263   -7.84575
       O     0.08455   11.03467   -7.14174
      H1    -0.39411   11.46495   -6.44271
       H    -7.19275   17.96561    2.98180
       O    -7.14768   18.10895    3.90502
      H1    -8.06555   18.43455    3.96474
       H    -8.89199   16.25310   -4.14788
       O    -8.84153   17.21363   -4.13949
      H1    -9.67009   17.38140   -4.65431

