180
frame 12 | Written by MDAnalysis XYZWriter (release 2.4.3)
       H   -16.63589   -0.53568   -9.80267
       O   -15.77463   -0.22147  -10.09113
      H1   -15.24675    0.02121   -9.30052
       H   -12.08038   -0.35149  -10.75187
       O   -12.17212    0.13365   -9.90305
      H1   -12.58469    0.98340  -10.18034
       H   -16.44579   -2.33730  -12.12176
       O   -16.76979   -2.47565  -13.02274
      H1   -17.68613   -2.77941  -12.85673
       H   -17.56095   -0.61977  -15.65609
       O   -17.06836   -0.37587  -14.89076
      H1   -17.00164   -1.12225  -14.25421
       H   -12.51784   -7.62125  -20.03297
       O   -12.88765   -7.80639  -19.16693
      H1   -12.92305   -7.03812  -18.61933
       H    -6.09022   -4.34304  -15.96498
       O    -5.86144   -4.47839  -15.06968
      H1    -4.99294   -4.91109  -15.16621
       H   -14.92039   -1.47342  -11.03230
       O   -14.42075   -2.22876  -11.37907
      H1   -13.95378   -1.91037  -12.19350
       H   -16.06268    1.47218   -9.95638
       O   -15.96224    2.24228   -9.35934
      H1   -16.46028    3.03264   -9.61561
       H    -8.80432   -1.00912   -9.55687
       O    -8.94103   -1.98142   -9.39237
      H1    -9.84991   -2.01997   -9.53523
       H    -6.68917   -2.65922  -14.77656
       O    -7.23320   -1.86197  -14.70626
      H1    -8.14087   -2.13575  -14.50651
       H   -15.41468   -2.55322  -16.30350
       O   -14.93510   -1.77282  -16.64308
      H1   -15.29485   -1.09138  -16.06970
       H   -16.01130   -4.15991  -13.18090
       O   -15.94580   -5.10689  -13.35934
      H1   -15.15320   -5.42362  -12.93228
       H   -12.92278   -5.75980  -10.71510
       O   -12.14607   -5.31719  -10.24259
      H1   -12.16534   -4.35511  -10.42330
       H   -16.57264    6.21387  -16.56249
       O   -16.56052    5.34347  -16.13972
      H1   -15.90545    4.78203  -16.44649
       H   -18.84590   -1.15974  -17.74494
       O   -18.60578   -1.75850  -16.95083
      H1   -18.72039   -2.70772  -17.13662
       H   -15.05469   -4.03540   -8.62179
       O   -15.05401   -4.61548   -9.42726
      H1   -15.22373   -3.94798  -10.11316
       H    -5.44601   -2.31327  -17.96715
       O    -6.07920   -3.01563  -18.07570
      H1    -6.00925   -3.09081  -19.04199
       H   -19.52917    1.38560  -15.90321
       O   -18.99020    1.24884  -16.69147
      H1   -18.53953    2.10531  -16.87764
       H   -14.35098    2.65241   -9.87541
       O   -13.49226    2.67535  -10.27027
      H1   -13.15011    3.55097  -10.40955
       H   -14.07249    0.81843   -7.32179
       O   -13.99476    0.00306   -7.91428
      H1   -13.10858   -0.06158   -8.31538
       H   -10.97867    5.24860  -12.89459
       O   -10.82692    5.91928  -13.58033
      H1   -10.06084    5.65399  -14.09997
       H   -13.00476   -1.11824  -16.22425
       O   -12.06507   -1.14900  -16.08748
      H1   -12.01630   -0.92455  -15.12780
       H   -10.74070   -6.38627  -16.53655
       O   -10.60446   -7.03735  -15.86188
      H1   -11.47138   -7.54533  -15.86569
       H   -11.44295    4.57328  -11.14014
       O   -11.53876    3.98404  -11.91304
      H1   -12.46603    4.06661  -12.22310
       H    -6.30721    0.17064  -12.21051
       O    -6.98174   -0.50755  -12.27208
      H1    -7.01118   -0.98406  -13.13192
       H   -16.62354   -1.25377  -19.42664
       O   -15.74497   -1.39440  -19.15559
      H1   -15.84217   -1.66156  -18.25741
       H   -10.37337    2.34690  -11.72295
       O   -10.15396    1.47991  -12.13002
      H1    -9.21100    1.27705  -11.88939
       H    -9.60051   -6.13884  -11.73117
       O    -9.61314   -6.36445  -10.81631
      H1   -10.45478   -6.02532  -10.50542
       H    -8.32273    3.55024  -10.84503
       O    -8.72856    3.37982   -9.98491
      H1    -8.97839    2.41263   -9.86716
       H   -14.03803    1.46237  -19.36598
       O   -14.02950    0.74332  -19.96360
      H1   -14.54442    0.00925  -19.56484
       H    -6.38776   -2.91808  -10.81293
       O    -5.57646   -2.34954  -11.04130
      H1    -5.84871   -1.60439  -11.59618
       H   -10.56258   -2.18161  -13.27575
       O    -9.95134   -2.53401  -13.90375
      H1   -10.29829   -2.54265  -14.77748
       H   -13.11287   -3.17523  -17.06721
       O   -12.74757   -3.89582  -17.70927
      H1   -13.20651   -3.73117  -18.54746
       H    -9.72133    2.53600  -15.06456
       O    -9.06983    2.45550  -14.39071
      H1    -9.59967    2.10345  -13.63857
       H    -7.85164   -3.20571  -18.28829
       O    -8.80095   -3.06947  -18.48876
      H1    -9.30057   -3.88141  -18.36369
       H   -16.45432    0.69312  -11.77260
       O   -16.35620    1.32376  -12.56630
      H1   -16.78520    0.86830  -13.38333
       H    -6.89652   -5.76103  -14.24496
       O    -7.27593   -6.51725  -13.77654
      H1    -8.14409   -6.20885  -13.58396
       H   -15.00230   -5.74217  -16.67181
       O   -14.80007   -6.52718  -17.15830
      H1   -14.37831   -7.12917  -16.50249
       H    -4.70995   -1.13235  -16.49156
       O    -5.43084   -0.50605  -16.37246
      H1    -6.06544   -0.87496  -15.71037
       H    -5.64764    2.83826  -17.07904
       O    -4.84493    2.56113  -16.54888
      H1    -5.16195    1.70595  -16.09719
       H   -14.20620    3.70399  -19.25101
       O   -13.84265    3.17004  -18.55762
      H1   -13.08982    3.63284  -18.20452
       H   -14.99874    5.11554  -12.64212
       O   -14.33424    4.85580  -11.99574
      H1   -14.74076    4.07318  -11.56476
       H   -10.23375   -6.25569  -14.28910
       O    -9.95979   -5.90199  -13.43040
      H1    -9.97071   -4.97368  -13.53333
       H   -17.02580   -4.27809  -16.32156
       O   -16.09317   -4.17192  -15.99904
      H1   -16.02320   -4.50271  -15.12920
       H   -11.30347    0.27772  -13.03323
       O   -12.07660   -0.26643  -13.29530
      H1   -12.74149    0.31760  -13.65052
       H   -11.99637   -2.27078   -9.29020
       O   -11.94280   -2.64101  -10.17029
      H1   -12.77135   -2.34419  -10.55926
       H    -8.36263    5.97399  -15.33379
       O    -8.72041    5.20669  -15.74165
      H1    -8.33991    4.37750  -15.33348
       H   -11.29307   -4.76075  -17.84019
       O   -10.43681   -5.23779  -17.94523
      H1   -10.50059   -5.48423  -18.87110
       H    -9.08880   -0.46134  -17.69208
       O    -9.92215   -0.02645  -17.83988
      H1   -10.47873   -0.74344  -17.50888
       H   -14.36137    3.48559  -16.91366
       O   -14.29546    3.78290  -15.98210
      H1   -13.62494    4.46304  -16.05663
       H    -6.12825   -0.41391  -18.00283
       O    -6.62164   -0.25767  -18.78861
      H1    -7.02072    0.61858  -18.59433
       H    -8.19857   -3.56417   -9.84497
       O    -7.56419   -4.18511  -10.23757
      H1    -8.14042   -4.72394  -10.77237
       H   -12.15172    2.02391  -15.94842
       O   -11.17486    2.01646  -15.94557
      H1   -11.03672    1.16756  -16.38455
       H   -12.70349    6.54166  -16.05734
       O   -12.37936    5.64394  -16.07762
      H1   -11.98412    5.52151  -15.20016
       H   -18.98624    2.96948  -11.54713
       O   -18.77661    2.31493  -12.25465
      H1   -17.88480    2.06137  -12.12951
       H   -14.81485    1.61202  -13.62033
       O   -14.02492    1.50905  -14.13772
      H1   -14.15432    2.13299  -14.86719
       H    -5.82158    1.87253  -10.73031
       O    -5.67660    1.77838  -11.69331
      H1    -6.27951    2.48305  -12.12270
       H   -10.57843    0.76916   -9.52702
       O    -9.71216    1.03680   -9.18832
      H1    -9.80123    1.09506   -8.22501
       H    -7.73761    3.72533  -13.21012
       O    -7.15429    3.76793  -12.45421
      H1    -6.45190    4.39866  -12.65333
       H   -14.99058   -6.75617  -11.18173
       O   -14.25568   -6.69467  -11.80353
      H1   -14.31387   -7.57951  -12.24274

