180
frame 2 | Written by MDAnalysis XYZWriter (release 2.4.3)
       H   -12.93687  -17.31246   -6.66248
       O   -13.68996  -16.69771   -6.43534
      H1   -13.27049  -16.46874   -5.54430
       H   -18.83460  -16.18509    7.11810
       O   -19.47092  -15.61279    7.64391
      H1   -19.04187  -14.74506    7.58668
       H   -17.10839  -17.62128    7.42462
       O   -17.61434  -17.58497    6.56475
      H1   -18.38580  -18.10066    6.74464
       H   -17.46430   -7.78029   -2.81979
       O   -16.99094   -7.20120   -3.44886
      H1   -16.66599   -7.77862   -4.18719
       H   -12.54151   -8.07574   -2.00570
       O   -12.39619   -8.92326   -1.55630
      H1   -11.50842   -9.13388   -1.92930
       H   -14.58967  -13.08180   -8.24839
       O   -15.37491  -13.34556   -7.73016
      H1   -15.55385  -14.26827   -7.81565
       H   -10.15865  -14.19363    1.49992
       O   -10.80465  -13.54171    1.25818
      H1   -10.57014  -12.64081    1.54031
       H   -13.91206  -18.08446    5.82357
       O   -13.99610  -17.78218    6.71415
      H1   -13.64519  -16.91603    6.70283
       H   -10.16889  -15.77301    4.24385
       O    -9.22696  -15.52359    4.31187
      H1    -9.04993  -15.01718    3.50209
       H   -11.89311  -13.21681   -3.23515
       O   -12.16570  -13.59099   -4.10538
      H1   -11.85184  -14.50167   -4.05220
       H   -20.01684  -12.14554   -6.49479
       O   -19.20012  -12.19672   -5.94997
      H1   -18.92985  -13.07433   -6.13011
       H    -9.01241  -13.57105   -1.57456
       O    -8.65295  -14.47810   -1.45781
      H1    -9.19080  -14.76991   -0.68627
       H   -19.48982  -11.52300    2.73967
       O   -19.68900  -10.98870    1.91941
      H1   -19.61587  -10.13820    2.34324
       H   -14.91729  -18.51143    3.90138
       O   -13.99627  -18.67365    4.13751
      H1   -14.00924  -19.48363    4.68615
       H   -17.49008  -13.46321   -1.91745
       O   -17.11445  -13.63941   -1.03807
      H1   -17.89186  -14.07780   -0.61258
       H   -17.44853  -13.34568    6.69736
       O   -18.38987  -13.09834    6.97714
      H1   -18.30397  -12.18842    7.24741
       H   -12.71741  -10.75245   -0.85026
       O   -13.06037  -11.34788   -0.16221
      H1   -13.64763  -11.92216   -0.68837
       H   -13.79679   -6.94457   -5.49462
       O   -13.35179   -7.75958   -5.73048
      H1   -13.99304   -8.42691   -5.41824
       H   -16.02596   -8.16374    3.62760
       O   -15.26523   -7.76419    3.12717
      H1   -15.12158   -8.57799    2.59817
       H   -12.13068  -17.06748    4.60156
       O   -11.53872  -16.50699    5.18321
      H1   -10.87043  -17.18318    5.38540
       H   -18.92891  -14.11549   -3.56254
       O   -18.16191  -13.47914   -3.62980
      H1   -18.59501  -12.80880   -4.22486
       H    -9.69339  -15.33421   -2.66047
       O   -10.30878  -15.63708   -3.35919
      H1    -9.79807  -15.57667   -4.21736
       H   -19.21791  -15.34469   -6.16355
       O   -18.43871  -14.86165   -6.48530
      H1   -17.76079  -15.54434   -6.47203
       H   -14.24966  -13.95850    0.42681
       O   -14.52103  -13.79276   -0.47301
      H1   -15.48673  -13.76253   -0.44641
       H   -10.58619  -12.61244   -5.21853
       O   -10.23659  -12.38495   -6.07467
      H1   -10.93900  -12.60155   -6.71459
       H   -17.94532  -14.47173   -8.52117
       O   -17.71150  -13.66602   -9.03466
      H1   -16.89854  -13.32215   -8.57751
       H   -17.21990  -17.53292   -2.54570
       O   -18.06424  -17.78239   -2.91265
      H1   -17.79483  -18.72108   -3.17983
       H   -18.16487  -11.01596    0.89852
       O   -17.38091  -11.01521    0.33368
      H1   -17.59873  -11.73649   -0.30089
       H   -12.23314  -19.16581   -6.70892
       O   -11.78984  -18.39232   -7.12894
      H1   -10.87561  -18.41124   -6.73894
       H   -14.03049  -10.23438    0.89789
       O   -14.70178   -9.99046    1.58875
      H1   -15.48068  -10.28747    1.15522
       H   -11.35776  -12.36838   -1.07386
       O   -11.03033  -12.48744   -1.97779
      H1   -10.13204  -12.10875   -1.99681
       H   -14.28454  -14.79558    3.47299
       O   -14.77598  -15.15309    4.25505
      H1   -14.08647  -15.05590    4.98772
       H   -18.89637  -17.88266   -9.04226
       O   -18.51024  -18.57249   -8.48065
      H1   -18.59042  -18.16958   -7.63246
       H   -14.84893  -14.83595   -3.57591
       O   -14.55972  -15.57607   -2.97635
      H1   -14.24677  -15.10840   -2.16523
       H   -10.81014  -13.08691    5.54514
       O   -11.68942  -13.00641    5.94189
      H1   -12.24437  -12.89476    5.18677
       H   -15.56010  -16.33267   -1.86464
       O   -16.23884  -16.41025   -1.15566
      H1   -16.57598  -15.48882   -1.15993
       H   -15.70125  -14.28040    7.38826
       O   -15.91924  -13.71221    6.58642
      H1   -15.14610  -13.08944    6.60185
       H   -11.12817   -9.95819    0.84982
       O   -11.41636   -9.06924    1.06360
      H1   -12.09317   -8.96160    0.37118
       H   -14.71156  -17.52274   -0.12587
       O   -13.97251  -18.06973   -0.11446
      H1   -13.90754  -18.30664   -1.06270
       H   -17.81663  -18.47867    3.32532
       O   -18.39555  -19.17451    2.94365
      H1   -18.01602  -19.50988    2.14830
       H   -19.15004   -8.19947    0.05405
       O   -18.17775   -8.17250    0.08009
      H1   -17.87365   -9.09147    0.15028
       H   -16.15022  -11.80502    4.65471
       O   -15.33551  -11.48329    5.10539
      H1   -14.68703  -11.73167    4.46440
       H   -12.71396  -17.17502    0.97767
       O   -11.91250  -17.02290    1.58644
      H1   -11.61678  -17.90539    1.71990
       H   -10.27124  -16.49781    0.92582
       O    -9.44069  -16.05516    0.74421
      H1    -8.88848  -16.43374    1.50729
       H   -18.62505  -13.64770    3.68116
       O   -18.48657  -12.69804    3.78817
      H1   -18.71961  -12.58488    4.75928
       H   -12.22237  -11.32711    2.88292
       O   -13.00934  -11.60641    3.35811
      H1   -13.58911  -11.29497    2.67618
       H   -19.67650  -14.52290    0.62178
       O   -19.04166  -15.21308    0.50473
      H1   -19.17021  -15.70874    1.30562
       H   -13.21016  -18.33838   -3.12127
       O   -13.46858  -19.18460   -2.80003
      H1   -14.28742  -19.39774   -3.28734
       H   -15.68513  -12.69879   -3.87532
       O   -15.39658  -12.11893   -3.14145
      H1   -14.47094  -12.24253   -3.32869
       H   -14.20532  -11.97245   -6.54104
       O   -13.81949  -11.10766   -6.31606
      H1   -14.40713  -10.79699   -5.66951
       H   -17.43646  -10.91094   -7.08764
       O   -17.35837   -9.96163   -6.81255
      H1   -16.85860   -9.56818   -7.59571
       H   -15.92101  -16.50962    4.25797
       O   -16.54465  -17.26543    4.13428
      H1   -16.85112  -17.26214    5.04604
       H   -12.41441  -13.93477    1.78729
       O   -13.37573  -13.84820    2.03991
      H1   -13.28112  -12.98134    2.52888
       H   -18.02385  -15.69416    4.01997
       O   -18.81916  -15.36689    3.56571
      H1   -19.52875  -15.59123    4.25358
       H   -15.21274  -16.23967   -7.18884
       O   -16.05627  -15.95968   -7.62809
      H1   -15.95016  -16.37289   -8.53556
       H   -15.70110   -9.99911   -4.08837
       O   -15.54823   -9.28580   -4.79323
      H1   -16.20382   -9.63646   -5.46506
       H   -18.04101  -17.73899   -4.77393
       O   -17.98645  -17.52583   -5.72015
      H1   -17.01469  -17.45617   -5.87188
       H   -13.33790  -16.33282   -3.56533
       O   -12.65154  -16.91866   -3.99808
      H1   -11.88188  -16.52051   -3.51305
       H   -16.74680  -14.22577   -4.92936
       O   -15.78490  -14.14254   -5.03619
      H1   -15.61902  -14.02330   -5.98091
       H    -9.47690  -18.78863   -4.03612
       O    -9.15128  -18.39680   -3.22512
      H1    -9.45327  -17.48576   -3.33206

