180
frame 7 | Written by MDAnalysis XYZWriter (release 2.4.3)
       H   -12.53605    7.41195   14.75090
       O   -11.80429    6.96993   15.18902
      H1   -11.84490    7.38008   16.06466
       H   -16.04243   19.24551   13.42642
       O   -16.84888   18.75269   13.22795
      H1   -16.75685   17.88656   13.61172
       H    -5.30179   16.62229   19.57596
       O    -6.13467   16.86944   19.08321
      H1    -6.01118   17.83884   18.91714
       H   -14.94758   17.28347   10.12310
       O   -15.02922   17.83883    9.36133
      H1   -14.37861   17.66960    8.71851
       H    -8.56789   15.33000   17.48542
       O    -9.25150   15.94850   17.80856
      H1   -10.00175   15.76525   17.20819
       H    -9.31272   15.11326   14.35808
       O    -9.65019   16.02797   14.38372
      H1   -10.22901   16.14474   13.57708
       H   -16.78496   15.44790   18.99046
       O   -17.11156   16.36643   19.24747
      H1   -17.94026   16.44952   18.82356
       H   -14.69732   14.50185   17.00252
       O   -13.95601   14.22760   16.43809
      H1   -13.52871   13.48425   16.87364
       H   -12.39098    9.56000   13.59377
       O   -12.03609   10.47706   13.63926
      H1   -11.33977   10.29073   14.29166
       H   -16.59269   15.56209   14.16791
       O   -17.14024   16.27357   14.53494
      H1   -16.77216   16.32928   15.42274
       H   -13.90373   16.71047   14.54097
       O   -13.76785   17.05325   13.63969
      H1   -13.72291   17.98937   13.87099
       H   -14.34338    8.30277   13.88840
       O   -13.52792    8.12345   13.49694
      H1   -13.78029    7.52405   12.72149
       H   -15.47445   17.90624   16.88196
       O   -15.80743   16.94191   16.96714
      H1   -15.96805   16.87171   17.93858
       H   -13.08283   18.43825   18.99732
       O   -12.36038   18.73404   18.41239
      H1   -12.07002   17.87677   18.08768
       H   -14.69259   19.69537   15.68312
       O   -14.70923   19.41809   16.56874
      H1   -13.73714   19.38159   16.81913
       H   -13.05921   15.03099   10.57432
       O   -12.10056   14.90491   10.36985
      H1   -12.00177   13.95188   10.44127
       H   -10.88358   13.12801    8.19291
       O   -10.02497   13.20256    8.59645
      H1    -9.48489   13.77345    8.04092
       H    -9.42589   12.64935   12.79195
       O    -9.74413   13.07224   13.57161
      H1    -9.90346   12.40204   14.26018
       H   -15.89520    9.79473   14.57104
       O   -15.70346    8.90976   14.88754
      H1   -16.57944    8.50104   14.77820
       H   -12.85316    9.19278   18.31936
       O   -12.25216    8.47627   18.04565
      H1   -12.79715    7.70809   18.15049
       H    -9.38621   10.03123   16.07960
       O    -9.56684   10.20959   15.13085
      H1    -9.21809    9.37305   14.78127
       H    -7.98875   19.18280   18.90095
       O    -7.81835   18.99582   17.96257
      H1    -8.10599   18.04706   17.93389
       H   -16.42047   13.54796   18.51884
       O   -15.70137   14.13408   18.91055
      H1   -15.83704   13.79183   19.81435
       H   -18.00572   17.68204    9.85592
       O   -17.73290   17.09876    9.08867
      H1   -16.76800   17.23240    9.18954
       H    -7.45631   15.18588   10.24476
       O    -6.84967   14.70309    9.63001
      H1    -6.06039   15.17741    9.78014
       H    -6.70012   15.49092   18.25411
       O    -6.99163   14.66267   17.77832
      H1    -6.37476   14.62619   17.05215
       H    -7.47172   14.32402   13.87571
       O    -7.60068   14.21739   14.86710
      H1    -8.29454   13.56191   14.83448
       H   -18.36333    9.78060   10.00992
       O   -17.88216    9.81191   10.85517
      H1   -17.12976   10.36443   10.63978
       H   -11.53856   16.19386   11.97107
       O   -11.14724   16.96396   12.41937
      H1   -11.91704   17.30977   12.90568
       H   -11.52496   16.67298    7.89353
       O   -10.74657   16.14001    8.11322
      H1   -11.17180   15.65305    8.80509
       H   -20.20523   16.99075   19.11111
       O   -19.45927   17.25554   18.53036
      H1   -19.04828   17.93421   19.08951
       H   -13.17778   11.73388   18.63332
       O   -12.69937   12.58627   18.64117
      H1   -13.37243   13.24123   18.95697
       H   -15.78687   18.49176    5.37880
       O   -15.01656   18.99030    5.66447
      H1   -15.25298   19.51953    6.40480
       H   -12.58622   15.46529   16.45022
       O   -11.93134   16.17257   16.32233
      H1   -11.43302   15.81982   15.57133
       H   -11.01648   12.20433   12.13103
       O   -11.37167   12.26231   11.24768
      H1   -11.31211   11.40973   10.81100
       H   -17.59038   18.65800    7.98120
       O   -17.34879   19.54003    7.65410
      H1   -18.01090   19.97449    8.15664
       H    -6.50345   13.00759   14.44691
       O    -6.06703   12.11321   14.29948
      H1    -6.24227   12.01454   13.30361
       H    -7.79244   16.05831   12.30624
       O    -8.36609   15.65774   11.71020
      H1    -9.03159   16.32962   11.61959
       H    -8.53738   16.81137    8.18284
       O    -7.86357   17.11187    7.52771
      H1    -7.80365   18.06620    7.64779
       H   -14.65592   15.09954   11.46323
       O   -14.72531   16.03318   11.27494
      H1   -14.50635   16.36345   12.19562
       H   -19.87728    8.51742   16.19901
       O   -19.51756    8.66723   17.11610
      H1   -18.66255    9.18570   17.06668
       H   -14.04161   17.77163    6.49427
       O   -13.62336   17.03024    6.99674
      H1   -14.19248   16.25368    6.76368
       H   -16.40333   11.54372   12.51374
       O   -16.39028   11.66970   13.46105
      H1   -17.33896   11.78615   13.55245
       H    -6.50117   18.94443   16.64745
       O    -6.02485   18.65284   15.87687
      H1    -5.11541   18.63255   16.28159
       H    -7.26340   17.81344   14.49648
       O    -7.86916   17.92852   13.75962
      H1    -8.66044   17.40469   14.06028
       H   -18.09612   18.28300   11.93167
       O   -18.67020   18.36587   11.16442
      H1   -18.80689   19.33830   11.07570
       H   -17.89720   15.37430   10.24397
       O   -17.92458   14.48324   10.62244
      H1   -18.66189   14.05303   10.12374
       H   -16.70903   12.96113   10.13181
       O   -16.23186   12.04011   10.14628
      H1   -15.32709   12.30783   10.36700
       H    -9.21953   10.03854   18.69689
       O    -9.62196    9.65009   17.88629
      H1   -10.47418    9.31551   18.16393
       H   -19.79481   12.16999   13.90516
       O   -18.98539   12.30073   14.35591
      H1   -18.76838   13.19488   14.00856
       H   -19.22493   13.34094    6.12870
       O   -18.91234   13.70070    6.94614
      H1   -19.23804   14.63588    6.86677
       H   -18.62555   14.91059   12.52489
       O   -18.96347   14.77535   13.38786
      H1   -18.52215   15.49122   13.83942
       H   -17.40942   11.70145   17.63505
       O   -17.52842   12.68113   17.53818
      H1   -18.48913   12.68420   17.33667
       H   -14.91229   14.17925   14.81515
       O   -15.50576   14.15175   14.04951
      H1   -15.72477   13.22232   13.92860
       H    -7.40658   18.77414   11.98421
       O    -7.17640   19.51912   11.41138
      H1    -6.23986   19.29849   11.24235
       H   -10.70042    8.67457   11.26256
       O   -11.08803    9.58997   11.27919
      H1   -11.47633    9.73816   12.22002
       H   -10.68852   19.14745   14.93208
       O   -11.60380   18.85639   15.27674
      H1   -11.52009   17.93805   15.60228
       H   -13.30906   12.80983   11.75789
       O   -14.16595   13.29398   11.66347
      H1   -14.39328   13.45704   12.58467
       H   -19.17906    7.39762   11.41234
       O   -19.17632    7.98953   12.19794
      H1   -18.63999    8.71394   11.79137
       H   -16.39964    9.35627   16.57186
       O   -16.97726    9.70044   17.27391
      H1   -16.56227    9.33698   18.07397

