180
frame 11 | Written by MDAnalysis XYZWriter (release 2.4.3)
       H   -15.28534    7.19458   -1.61966
       O   -15.50292    6.33409   -1.09842
      H1   -15.72942    5.71797   -1.75933
       H   -13.89109    9.20738  -11.52416
       O   -14.27863    9.20661  -10.60171
      H1   -13.69638    8.57957  -10.17925
       H   -19.36557   14.49065    1.81359
       O   -19.59972   14.05658    0.92570
      H1   -18.79853   13.62603    0.85645
       H   -18.59664   10.95239   -5.69004
       O   -17.64946   11.17931   -5.90758
      H1   -17.73623   12.05005   -6.24890
       H   -18.46108   16.91006    3.15225
       O   -18.71301   15.94482    3.10555
      H1   -19.36677   15.99497    3.79529
       H   -17.94604   14.85930   -5.08039
       O   -17.72597   14.08322   -4.49629
      H1   -18.07442   14.19337   -3.57316
       H   -17.52790   16.16149  -10.16347
       O   -18.35815   16.04712  -10.66383
      H1   -18.14314   16.66878  -11.39594
       H   -15.16362   15.22843  -12.55843
       O   -14.76045   15.51339  -11.72392
      H1   -14.92718   16.52935  -11.78239
       H   -12.14148   19.82967   -4.73777
       O   -12.55384   19.02513   -4.41122
      H1   -13.48878   19.31612   -4.23575
       H   -13.07595   12.33613  -11.23624
       O   -12.52267   12.86298  -10.64151
      H1   -12.04929   13.44023  -11.24787
       H   -15.70806   18.48469   -9.97692
       O   -14.87541   18.01295  -10.09070
      H1   -15.08781   17.08324   -9.76772
       H   -15.12486   12.03039   -5.25029
       O   -15.26668   12.91029   -4.84530
      H1   -16.23921   12.92614   -4.71883
       H   -17.14109   14.93973    3.58108
       O   -16.79527   14.57613    4.37828
      H1   -17.63491   14.37510    4.84423
       H   -14.73359   14.79955   -5.14940
       O   -14.75539   15.66249   -5.57181
      H1   -15.59785   15.96891   -5.42709
       H   -17.68172   17.34955   -6.61270
       O   -17.42386   16.91448   -5.73751
      H1   -17.37207   17.70681   -5.15252
       H   -14.35530    7.51728   -8.28935
       O   -14.91205    7.87046   -7.58746
      H1   -15.56592    8.33721   -8.20807
       H   -18.78434   16.35824   -0.36627
       O   -18.84680   17.31154   -0.24511
      H1   -19.61642   17.32269    0.33561
       H   -12.89384   12.22987   -1.62656
       O   -12.34284   12.09272   -0.86395
      H1   -12.80064   11.29852   -0.50061
       H   -11.21546   10.19972   -5.50913
       O   -12.09659   10.60224   -5.61668
      H1   -12.25956   10.70863   -6.53941
       H   -13.97416    9.91714   -2.65178
       O   -14.48469    9.50553   -1.93844
      H1   -13.82214    8.89602   -1.52692
       H   -18.01056    7.40611   -8.77105
       O   -18.89484    7.10405   -8.50257
      H1   -18.59196    6.43398   -7.84626
       H   -16.08073    5.18363   -6.29547
       O   -16.56920    5.99845   -6.37553
      H1   -16.01571    6.62447   -6.86427
       H   -13.52713   18.22584    1.15433
       O   -14.17545   17.66753    0.70417
      H1   -14.62969   18.24487    0.12164
       H    -9.17052   14.86735   -7.16403
       O    -9.05172   13.97120   -6.94322
      H1    -9.72428   13.81122   -6.28425
       H   -14.79334   10.48642   -6.43866
       O   -15.09410   10.36615   -5.48273
      H1   -16.00738   10.13920   -5.62428
       H   -12.29349   11.00142   -8.93598
       O   -11.43087   10.55918   -8.72081
      H1   -10.97685   10.76836   -9.54331
       H   -15.43001   11.38865   -1.70755
       O   -15.97396   12.17567   -1.83152
      H1   -16.84594   11.79156   -1.65010
       H   -18.77935    8.20696  -11.83148
       O   -18.85199    9.10153  -12.24667
      H1   -19.25253    9.74059  -11.59213
       H   -13.30145   15.68003   -4.23718
       O   -12.72181   15.08282   -3.68119
      H1   -11.95662   15.68356   -3.60943
       H   -13.52872   11.41678    2.44117
       O   -13.12335   10.52561    2.37580
      H1   -13.94466    9.94932    2.21430
       H   -18.58542   15.12503   -8.57173
       O   -18.81264   14.45613   -7.93190
      H1   -19.36324   13.86131   -8.50042
       H   -15.53577   15.13095   -0.79049
       O   -16.43226   15.30703   -0.49618
      H1   -16.24953   15.94810    0.22040
       H   -11.93043   17.10599   -7.21047
       O   -11.45289   17.75407   -6.67454
      H1   -12.10558   18.09792   -6.04116
       H   -11.18129   15.66238   -9.46644
       O   -10.62410   16.37688   -9.93103
      H1   -11.31974   17.01653  -10.13882
       H   -16.36240   13.94923    0.51616
       O   -16.64013   13.26980    1.20348
      H1   -15.78211   13.12067    1.58835
       H   -17.15530   18.89991    1.64718
       O   -17.10842   17.95634    2.07776
      H1   -17.85081   17.55039    1.62996
       H   -13.94804   16.32397   -0.53402
       O   -13.85126   15.32735   -0.68586
      H1   -13.62526   15.23893   -1.65135
       H   -17.65163   10.32168    0.98587
       O   -17.63823   10.73935    1.89295
      H1   -17.22813   11.59322    1.63753
       H   -15.71193    8.13415    2.05392
       O   -15.67537    9.04224    2.34658
      H1   -16.50253    9.48658    2.02538
       H   -16.47712    9.06129   -0.84629
       O   -17.31421    9.24131   -0.41674
      H1   -17.64318    8.30284   -0.25420
       H   -11.60662   15.60842   -0.33717
       O   -10.90910   15.00382   -0.02092
      H1   -10.34419   14.92258   -0.80062
       H   -15.94637   12.59588   -8.83970
       O   -15.32417   13.25757   -9.22589
      H1   -14.57333   13.41547   -8.55484
       H   -13.98212   12.18926   -3.65083
       O   -13.29053   11.54464   -3.35810
      H1   -12.96527   11.18761   -4.27516
       H   -12.25827   13.29425   -6.94724
       O   -12.98344   13.07782   -7.60699
      H1   -12.49165   13.09074   -8.44721
       H   -16.00632   15.06234   -9.06494
       O   -16.24818   15.94033   -8.72288
      H1   -16.62269   15.86054   -7.83794
       H   -18.50107   11.14003   -8.64739
       O   -17.55004   11.01774   -8.54560
      H1   -17.49870   11.00886   -7.59204
       H   -13.71275   13.68342    2.75122
       O   -14.34134   12.94717    2.68497
      H1   -14.74135   12.83155    3.59329
       H   -15.20905   12.71904  -11.00377
       O   -15.26415   12.15312  -11.80017
      H1   -15.25482   12.82409  -12.52097
       H   -13.07614    8.89637   -5.19650
       O   -13.22950    8.06595   -4.74821
      H1   -14.20846    8.12194   -4.58855
       H   -14.20285   10.41637   -9.25656
       O   -14.19057   10.55984   -8.27905
      H1   -14.14316    9.60056   -7.96952
       H   -13.21236   15.12535   -7.70353
       O   -13.21872   16.08638   -7.90610
      H1   -13.95106   16.32899   -7.30116
       H   -18.69402   19.56880   -7.67213
       O   -18.64485   18.68934   -8.07923
      H1   -18.26260   18.83562   -8.92356
       H   -17.61880   17.71832   -2.01680
       O   -16.87565   18.14816   -2.41854
      H1   -16.64334   17.55020   -3.13494
       H   -18.45220   12.45172  -11.82686
       O   -18.62617   13.36795  -11.80102
      H1   -17.99593   13.61647  -11.12395
       H   -19.34653   13.87750   -1.89779
       O   -18.95427   14.75441   -1.94753
      H1   -18.05636   14.59837   -1.70213
       H   -16.22306    8.82229  -10.08555
       O   -16.76526    8.50238   -9.36292
      H1   -17.06568    9.33729   -9.03783
       H   -10.93568   10.91723   -1.81245
       O   -10.32539   10.48688   -2.44928
      H1    -9.52866   10.43737   -1.95422
       H   -19.62956    6.36388   -5.72291
       O   -19.09385    5.72699   -6.20954
      H1   -18.19284    6.07497   -6.08003
       H   -11.47645   17.79774   -3.86512
       O   -10.99161   17.05095   -3.45349
      H1   -10.63067   17.49759   -2.72250
       H   -11.95962   13.91235   -4.78852
       O   -11.45579   13.41182   -5.46467
      H1   -11.37489   12.54962   -4.99884

