180
frame 8 | Written by MDAnalysis XYZWriter (release 2.4.3)
       H    -9.48831  -17.64201   13.72236
       O    -9.53774  -18.01891   14.60190
      H1    -8.63521  -18.26684   14.75919
       H    -7.69277   -9.54924    8.36764
       O    -8.10544  -10.38738    8.23275
      H1    -8.31333  -10.64176    9.18133
       H    -8.48787  -11.39211   11.58221
       O    -8.95268  -11.14093   10.70548
      H1    -9.37038  -10.36199   11.13953
       H   -15.57128  -12.28407   10.23496
       O   -14.96849  -11.56313   10.11065
      H1   -14.80301  -11.32570   10.99695
       H    -6.99904  -11.65945   15.83485
       O    -6.13464  -11.30243   15.68711
      H1    -6.06310  -11.17353   14.74998
       H    -6.87925   -8.33220   11.46517
       O    -6.51709   -8.00392   10.61940
      H1    -7.26470   -7.44117   10.22356
       H    -5.49336  -15.87033    9.73298
       O    -6.15026  -16.56839    9.80631
      H1    -6.92146  -16.39486    9.21404
       H    -5.59655  -12.86911   10.67056
       O    -6.35702  -13.45289   10.84093
      H1    -6.52727  -13.76871    9.95874
       H    -9.66589  -15.62837   18.02102
       O    -9.80165  -15.48050   18.95629
      H1    -9.18921  -14.83739   19.24218
       H   -11.98615  -11.29720   13.16978
       O   -12.40467  -10.59785   12.62526
      H1   -13.08625  -10.14943   13.20504
       H    -5.50996  -13.64275   12.39658
       O    -4.65331  -13.89503   12.90601
      H1    -4.45453  -13.08352   13.47249
       H   -10.69543  -10.16526   19.90899
       O   -11.24546   -9.71240   19.24439
      H1   -12.02201   -9.48482   19.79645
       H   -11.32427  -13.84264   19.09842
       O   -10.90931  -13.00426   18.81960
      H1   -11.52627  -12.41101   19.20217
       H    -7.74861   -9.67762   13.21417
       O    -7.62492   -8.79561   12.83607
      H1    -8.54889   -8.54574   12.70763
       H    -4.82820  -10.91457   12.82458
       O    -4.27701  -11.03472   13.64794
      H1    -3.42860  -11.29910   13.30949
       H    -2.76442   -7.94866   16.16618
       O    -3.34846   -7.30216   16.58181
      H1    -4.03580   -7.89883   16.92754
       H    -8.33849  -16.65729   11.90694
       O    -9.17447  -16.55950   12.40147
      H1    -9.76782  -16.45337   11.63142
       H    -2.74712  -11.74681   17.37598
       O    -2.71270  -11.95881   16.41381
      H1    -2.84177  -11.09427   15.99470
       H    -5.39740   -7.34574    7.22357
       O    -5.82324   -8.14511    7.60124
      H1    -5.14749   -8.55712    8.19077
       H    -7.21327   -7.83797   14.25785
       O    -7.06256   -7.14858   14.93128
      H1    -6.17789   -6.80101   14.71656
       H    -5.12702   -9.69886   17.91994
       O    -5.11483   -9.09049   17.14274
      H1    -5.34561   -9.61744   16.37831
       H    -3.63593   -7.96528    9.45935
       O    -4.19355   -8.82997    9.46479
      H1    -4.96982   -8.41948    9.92856
       H    -1.36559  -12.73917   11.54756
       O    -2.01806  -12.06125   11.68350
      H1    -1.46092  -11.27247   11.76787
       H   -13.95192  -12.81766   10.58415
       O   -13.50478  -13.70523   10.62019
      H1   -13.54042  -13.85970   11.58416
       H    -6.21933  -14.09053   18.01535
       O    -5.92321  -13.13048   18.13070
      H1    -6.05369  -12.90877   17.17499
       H    -8.78766   -7.07920   15.82071
       O    -9.64105   -7.40852   16.07857
      H1    -9.47091   -8.29208   16.36316
       H   -12.38805   -6.78427   10.36502
       O   -11.59454   -7.26253   10.07418
      H1   -11.53375   -7.07870    9.11083
       H    -3.09408  -15.70122   10.63757
       O    -3.85826  -15.11014   10.46246
      H1    -3.86404  -14.58138   11.33271
       H   -15.20757  -11.38654   13.72046
       O   -15.43583  -11.81872   12.82280
      H1   -16.39272  -11.81868   12.83323
       H    -7.64033  -13.36620    7.83482
       O    -6.80393  -12.93282    8.03261
      H1    -7.05164  -12.01410    8.07544
       H    -6.81310   -4.96388   11.65454
       O    -6.35331   -5.68392   12.06417
      H1    -6.43325   -6.33993   11.34924
       H    -4.66158  -15.06696   16.63633
       O    -3.72796  -14.96819   16.50201
      H1    -3.61717  -13.98985   16.33681
       H   -11.25105  -16.76534   10.21057
       O   -11.49382  -16.98279   11.12087
      H1   -12.17962  -16.37458   11.42721
       H   -11.33604   -9.86319   16.22086
       O   -12.19416   -9.33930   16.25223
      H1   -12.12192   -8.91557   17.12428
       H    -6.65671  -15.02530   13.69915
       O    -7.43827  -14.54658   14.09507
      H1    -8.11185  -14.93740   13.52861
       H   -11.19312   -7.85174   13.32018
       O   -11.34358   -7.16362   13.97912
      H1   -10.97566   -7.54019   14.78172
       H   -11.44233  -13.04830   14.72998
       O   -11.03116  -12.50409   13.99921
      H1   -11.12374  -13.09350   13.17555
       H   -14.96696  -14.79013   12.89869
       O   -14.24985  -14.24411   13.16760
      H1   -14.65011  -13.36710   12.93301
       H   -11.41960  -13.49048   17.21624
       O   -11.81639  -13.64377   16.33800
      H1   -11.33658  -14.41289   16.10109
       H    -9.01460  -11.47954   16.84632
       O    -8.88745  -12.43659   16.75030
      H1    -9.64970  -12.80929   17.13638
       H    -3.32966  -15.49999   15.06201
       O    -2.99055  -15.82898   14.16917
      H1    -3.56023  -15.21557   13.68020
       H   -12.34254   -6.23549   15.20285
       O   -12.85516   -5.57031   15.78892
      H1   -13.55758   -6.09799   16.12845
       H   -10.81755   -8.29585   11.32947
       O   -10.48921   -8.94773   11.94704
      H1   -11.20285   -9.54603   12.14564
       H    -9.92541  -13.27859    7.58100
       O    -9.21705  -13.88847    7.28345
      H1    -9.49233  -13.95168    6.33699
       H    -8.95589   -6.17395    8.99771
       O    -8.72866   -6.29918    9.89746
      H1    -9.47197   -6.77106   10.28352
       H   -13.63242  -10.43553   15.58272
       O   -14.32095  -10.94604   15.06554
      H1   -14.45248  -11.66707   15.70212
       H    -7.27501   -8.63518   19.34877
       O    -7.69142   -8.33901   18.55573
      H1    -6.99688   -8.34154   17.86221
       H    -9.16675  -14.91597   15.60505
       O    -9.58245  -15.61676   16.17469
      H1    -9.46547  -16.44131   15.61004
       H   -14.52713  -13.67526   15.09519
       O   -14.52233  -13.46935   16.04593
      H1   -13.57771  -13.71268   16.14432
       H    -9.34323  -11.91265   13.62570
       O    -8.45882  -11.55232   13.35647
      H1    -7.99028  -12.35053   13.67491
       H    -7.23987  -10.34512    6.55853
       O    -6.52899  -10.34069    5.88835
      H1    -5.93993   -9.65542    6.19560
       H   -11.48975  -13.34229   10.86695
       O   -10.78415  -13.31719   11.50575
      H1   -10.26009  -12.52479   11.38300
       H    -6.61558  -17.66704   14.29902
       O    -6.73686  -17.94641   15.21358
      H1    -6.36248  -18.85166   15.35450
       H    -6.76607  -18.20723   12.34126
       O    -6.52847  -17.26367   12.33593
      H1    -6.19542  -17.14122   11.37587
       H   -11.09233   -9.03977    7.28415
       O   -10.77343   -9.85894    6.95915
      H1    -9.98627  -10.06863    7.49513
       H    -9.03121   -9.53062   17.76673
       O    -9.54980   -9.98324   17.08174
      H1   -10.26690  -10.20167   17.67628
       H    -6.42191  -16.57870   16.88883
       O    -6.15669  -15.74346   17.28297
      H1    -6.14533  -16.08401   18.22978
       H   -10.08619   -6.08583   13.32773
       O    -9.39683   -5.59097   12.85861
      H1    -8.61678   -5.73933   13.45495
       H    -8.71667   -5.53058   17.79963
       O    -7.96811   -5.64547   18.41634
      H1    -7.93124   -6.60704   18.30739
       H    -4.56142  -10.58471   10.25135
       O    -4.61573  -11.25131   10.95973
      H1    -3.69056  -11.44669   11.01141

