180
frame 5 | Written by MDAnalysis XYZWriter (release 2.4.3)
       H    -1.49726    1.55762   14.20725
       O    -1.30290    2.50965   14.25945
      H1    -1.02088    2.60919   13.33842
       H     6.62692    2.93850   12.32311
       O     6.35737    2.21285   11.70398
      H1     5.39634    2.25940   11.67097
       H    -2.79531    5.01429   18.39663
       O    -2.74394    4.91981   17.39715
      H1    -2.02599    4.28229   17.35180
       H    -1.84295   -6.74636   16.97256
       O    -1.04788   -6.14879   17.04054
      H1    -1.20341   -5.40102   16.42754
       H     0.12961    2.83058   17.14756
       O    -0.66750    3.20388   16.77251
      H1    -0.59333    2.80931   15.87814
       H     3.79692   -1.09246   13.86708
       O     3.93386   -0.35075   14.48443
      H1     3.31469   -0.41178   15.26305
       H    -2.93584    1.26262   17.16083
       O    -2.38985    0.45542   17.37769
      H1    -1.56954    0.77999   17.88734
       H     8.04665   -2.32175   15.32839
       O     7.56995   -3.19967   15.25518
      H1     8.38113   -3.75671   15.53898
       H     1.56520   -1.92255   16.18106
       O     2.20158   -2.61534   16.03197
      H1     2.30922   -3.08042   16.84636
       H     7.05942    0.54493    9.95557
       O     7.32179   -0.16591   10.57350
      H1     6.85023    0.12969   11.35922
       H    -1.25359   -3.96641   10.10355
       O    -0.54054   -4.20909   10.74195
      H1    -0.16449   -5.06134   10.49620
       H     1.09025    0.88654   10.91675
       O     1.62992    0.13216   10.81686
      H1     1.89112    0.22230    9.85874
       H    -3.42358    2.68288   13.25729
       O    -3.91500    1.99307   12.88459
      H1    -3.55840    1.18753   13.28852
       H     5.90703   -0.56413   13.42505
       O     6.71923   -0.91155   13.08140
      H1     6.55295   -1.89566   12.88471
       H     5.95124   -4.27022   17.46686
       O     5.28319   -4.93026   17.26678
      H1     4.96665   -4.61376   16.39739
       H     0.92307   -6.80295   17.54503
       O     1.80867   -6.59720   17.80166
      H1     2.37798   -7.09436   17.16452
       H     5.64443    3.32262   14.52486
       O     5.02503    3.26934   15.27183
      H1     5.60843    3.47876   16.04476
       H     2.32115    0.63590   17.34928
       O     1.90740   -0.20056   17.62423
      H1     2.69632   -0.61200   18.05347
       H     6.06826   -6.28409   16.44139
       O     6.58867   -6.83051   15.83321
      H1     6.21746   -7.67915   16.00107
       H     7.19508   -3.01723   17.04111
       O     6.80311   -2.83102   17.89548
      H1     7.63909   -2.94117   18.41908
       H    -2.09284   -1.50933   17.79224
       O    -2.24068   -2.46983   17.82743
      H1    -1.73163   -2.86418   17.06814
       H     2.08040    4.85070   15.42469
       O     2.60781    4.99104   14.63558
      H1     3.44075    4.58169   14.86566
       H    -5.61273   -3.49000   17.68568
       O    -5.23526   -2.65974   17.55902
      H1    -4.28121   -2.85908   17.56782
       H     0.76598   -1.92284   13.25768
       O    -0.17436   -2.07172   13.05216
      H1    -0.10776   -2.42451   12.12622
       H     0.58670    5.24529   17.64864
       O     1.39495    5.72774   17.38621
      H1     1.92380    5.86162   18.19247
       H     1.79168   -6.23844   13.17999
       O     2.17208   -6.21951   12.29958
      H1     1.80710   -7.08510   11.98165
       H     2.15179   -9.72321   15.74748
       O     2.04526   -8.80930   16.00113
      H1     2.55842   -8.32049   15.35497
       H    -5.17659   -1.92107   14.66549
       O    -6.12495   -2.08984   15.04905
      H1    -5.78399   -2.34377   15.96852
       H     7.50460    1.62536   17.69074
       O     7.31743    2.26680   18.40486
      H1     8.25109    2.52108   18.67143
       H     3.68197   -7.19230   13.25915
       O     3.84857   -7.75849   14.04870
      H1     4.02295   -8.52011   13.51345
       H     0.98414   -9.31633   19.82529
       O     0.62607   -8.41829   19.74392
      H1     1.23624   -8.01264   19.11763
       H     2.90248   -2.59948   11.64138
       O     2.85421   -1.75808   12.15827
      H1     2.26679   -1.19797   11.55697
       H    -1.27258   -0.76029   13.96865
       O    -1.82433   -0.04010   14.32942
      H1    -1.88967   -0.21862   15.25929
       H     3.20132    2.62173   17.55305
       O     2.98400    2.24632   16.69154
      H1     3.74300    2.47527   16.04350
       H     1.52344   -4.21133   10.03081
       O     2.38008   -3.77354    9.82762
      H1     2.62965   -4.22751    9.00935
       H    -0.55592   -3.07238   14.87496
       O    -0.51227   -3.63475   15.68414
      H1     0.43673   -3.76126   15.80291
       H     3.90689    1.00552   13.30964
       O     3.75060    1.34030   12.40890
      H1     3.25429    0.61367   12.02487
       H    -0.25935   -6.52108   14.18397
       O    -0.89336   -6.79377   13.49580
      H1    -1.38447   -5.98380   13.29957
       H    -3.59674    3.38579   16.87691
       O    -3.95270    2.54347   16.53154
      H1    -3.29329    2.43253   15.80911
       H     0.60180    2.23965   12.06744
       O    -0.20030    1.92175   11.58482
      H1    -0.51384    2.62850   10.93890
       H     1.83240   -5.82924   16.19698
       O     1.85860   -5.52053   15.25242
      H1     2.66123   -5.04165   15.21360
       H     6.06139   -0.08595   16.52139
       O     6.85673    0.43368   16.30550
      H1     7.19720   -0.22583   15.66017
       H    -2.17127   -9.37392   13.87316
       O    -2.71062   -8.73320   14.32881
      H1    -2.27626   -7.89441   14.29617
       H     5.16466   -0.89355   19.39922
       O     4.68683   -1.63289   18.99179
      H1     5.46568   -2.05622   18.53639
       H    -2.96136    0.23081    9.57837
       O    -2.25090   -0.42177    9.77086
      H1    -1.96195    0.06469   10.56621
       H    -4.20268   -5.13812   19.95323
       O    -4.23241   -5.36692   18.99355
      H1    -3.60024   -6.14201   18.93731
       H    -3.22949   -0.72159   13.95532
       O    -4.16967   -0.95960   13.70780
      H1    -4.11448   -1.57516   12.89231
       H     6.46355   -3.79388   13.43902
       O     5.73719   -3.36478   12.98567
      H1     5.34027   -4.12212   12.56126
       H    -4.18661   -6.07032   13.48432
       O    -4.27714   -6.73800   12.79648
      H1    -4.74659   -6.04740   12.23109
       H     2.40777    2.52947   12.45745
       O     1.73872    3.27052   12.54497
      H1     2.02571    3.66053   13.36808
       H     2.67249   -5.06798   18.20782
       O     2.78519   -4.17540   18.58144
      H1     3.67080   -3.89007   18.47883
       H     9.63365    0.26135   18.96148
       O     9.33943   -0.33651   18.27492
      H1     8.39080   -0.35294   18.36248
       H     3.63703   -3.36468   15.27264
       O     4.10805   -4.15897   14.89569
      H1     4.64618   -3.77454   14.17831
       H     8.83830   -0.36423   15.83926
       O     9.15365   -1.12117   15.28685
      H1     9.26480   -0.65305   14.41779
       H     3.71036    2.85057   19.62234
       O     2.84964    3.24070   19.24872
      H1     3.12248    4.17560   19.27508
       H     5.27765   -2.57038   10.81296
       O     5.51271   -2.18794    9.90984
      H1     5.98838   -1.31454   10.07338
       H     3.82809   -5.10672   11.62169
       O     4.61226   -4.85706   11.05383
      H1     4.03783   -4.56874   10.29035
       H     7.61603   -6.63541   13.09133
       O     6.79095   -6.13301   13.11859
      H1     6.48762   -6.23769   14.07700
       H    -1.00937   -6.93144   10.25539
       O    -1.75068   -7.20183   10.83281
      H1    -1.34227   -7.26557   11.74054
       H    -4.30568   -6.16735   15.74143
       O    -3.98798   -5.38665   15.23589
      H1    -4.94001   -5.23967   14.88726

