180
frame 6 | Written by MDAnalysis XYZWriter (release 2.4.3)
       H   -15.05956    0.92199   -9.64811
       O   -14.79551    1.76607   -9.21283
      H1   -14.60498    2.28075  -10.02568
       H   -11.67181   -6.39072  -18.51419
       O   -11.10413   -6.97647  -18.07320
      H1   -11.33829   -7.80630  -18.47718
       H    -7.41901    0.90423  -18.19948
       O    -7.63046    1.06824  -17.28288
      H1    -8.03719    0.16470  -17.10557
       H    -6.81060   -2.13625  -10.18017
       O    -7.55212   -2.10697   -9.51235
      H1    -7.35881   -1.30006   -9.00949
       H   -16.32476   -3.54098  -14.96858
       O   -17.18866   -3.36698  -15.43425
      H1   -17.79821   -3.26854  -14.61618
       H   -12.45372  -10.10211  -10.16030
       O   -12.63927   -9.59999  -10.94276
      H1   -13.37326  -10.07167  -11.42983
       H   -13.09314   -1.53901  -16.04809
       O   -13.26371   -1.06342  -16.83519
      H1   -14.12416   -0.64660  -16.69267
       H    -9.19737   -6.85419   -8.57863
       O    -9.91333   -6.15437   -8.41018
      H1   -10.52763   -6.32482   -9.13781
       H    -5.73755   -1.86588  -13.87265
       O    -6.48255   -1.74958  -14.52215
      H1    -6.24985   -0.80056  -14.65350
       H   -19.76641   -2.20702  -13.68087
       O   -18.93525   -2.54119  -13.31294
      H1   -18.36452   -1.74250  -13.28769
       H   -12.63727   -3.17364   -9.59745
       O   -12.10876   -2.36718   -9.82971
      H1   -12.02472   -1.99823   -8.93195
       H    -7.14524   -9.05989  -15.44466
       O    -7.51633   -8.17675  -15.68882
      H1    -6.88055   -7.52858  -15.50358
       H   -10.30628   -6.00775  -13.87936
       O   -10.70662   -6.85554  -13.61611
      H1   -11.21194   -7.04667  -14.42235
       H   -11.20406   -7.19900  -11.66727
       O   -11.08160   -7.20523  -10.71127
      H1   -11.47251   -8.12031  -10.43602
       H   -14.86332   -3.28359  -18.05225
       O   -15.76923   -3.41000  -18.28903
      H1   -16.25188   -3.91266  -17.56981
       H   -15.32268   -4.10362   -8.76593
       O   -16.23507   -4.04446   -8.50928
      H1   -16.22809   -3.29759   -7.86488
       H   -10.08910   -4.24107  -10.94170
       O    -9.14238   -3.96031  -10.82251
      H1    -9.17270   -3.41611  -10.04658
       H   -17.05028   -0.74207  -12.25276
       O   -17.36894   -0.35198  -13.09337
      H1   -16.60000   -0.37815  -13.66589
       H   -10.91954   -6.02187   -7.11352
       O   -11.47138   -6.15165   -6.26925
      H1   -11.19541   -7.01474   -6.04376
       H    -7.33858   -4.27925  -13.35485
       O    -6.54581   -4.57260  -12.90060
      H1    -6.90878   -5.35842  -12.35821
       H   -12.03559   -3.77974  -11.17200
       O   -11.84591   -4.19085  -12.02046
      H1   -12.58674   -4.81472  -12.01823
       H    -7.31559    0.19460  -10.67749
       O    -8.23048    0.30834  -10.96005
      H1    -8.27164   -0.45999  -11.51391
       H    -8.46669   -2.73169  -12.01830
       O    -8.46485   -1.93582  -12.58793
      H1    -7.73067   -1.98166  -13.17989
       H    -9.05520   -8.52720  -13.17017
       O    -8.75672   -9.31718  -12.69937
      H1    -9.65660   -9.70605  -12.52069
       H   -13.36315   -0.93058  -19.84265
       O   -13.17905   -1.88153  -19.44422
      H1   -13.31774   -1.70269  -18.46893
       H   -15.91383   -1.81554  -10.66610
       O   -16.83924   -2.09783  -10.65324
      H1   -16.87390   -2.71230   -9.95989
       H   -11.74040   -0.04671  -12.59526
       O   -12.45711    0.37075  -12.00442
      H1   -12.14159    1.29720  -11.91648
       H    -9.83257   -4.10822  -14.44273
       O    -8.97257   -4.50783  -14.45435
      H1    -8.68470   -4.39498  -15.38625
       H   -10.58969  -11.76314  -11.60077
       O   -10.81841  -11.10820  -12.25218
      H1   -11.49490  -10.51451  -11.80076
       H   -16.79883   -8.70624  -12.54385
       O   -16.89132   -7.74954  -12.58547
      H1   -17.16587   -7.58528  -11.67663
       H   -14.18153   -9.81310   -9.79918
       O   -14.94885   -9.37708   -9.40365
      H1   -14.73085   -8.48523   -9.64728
       H   -10.76244  -10.60697  -14.27526
       O   -10.61431  -10.10135  -15.08854
      H1    -9.85285  -10.53812  -15.42039
       H   -14.00873   -0.35463  -11.04148
       O   -14.61449   -0.82068  -10.44841
      H1   -13.96950   -1.21912   -9.82688
       H    -7.81193   -3.67131   -8.60106
       O    -7.95776   -4.36618   -7.93822
      H1    -8.74998   -4.83619   -8.34149
       H   -11.49789   -2.46752   -6.79247
       O   -11.87232   -1.70587   -7.29967
      H1   -11.09926   -1.06863   -7.32062
       H   -14.81794   -7.81404  -17.66630
       O   -15.12991   -7.25737  -18.35741
      H1   -15.82979   -6.77288  -17.82837
       H    -8.28405    1.44743  -12.67516
       O    -8.32351    1.42184  -13.59861
      H1    -7.39675    1.25376  -13.81918
       H   -11.28139    0.37866  -17.63852
       O   -10.92329    1.18717  -17.30514
      H1    -9.96294    1.01429  -17.15047
       H   -13.98944   -3.94685  -14.42576
       O   -14.88592   -4.02105  -14.11686
      H1   -14.89572   -5.01319  -14.07202
       H    -9.48378   -7.18537  -18.20919
       O    -8.50388   -7.46753  -18.26211
      H1    -8.32181   -7.60132  -17.34158
       H   -13.40657   -8.91485  -16.68735
       O   -14.10684   -9.48639  -17.13934
      H1   -13.96467  -10.36314  -16.75872
       H   -10.01298   -2.48624  -17.12126
       O   -10.60996   -3.16281  -17.45883
      H1   -10.05143   -3.93501  -17.63278
       H   -10.29780   -1.06857  -13.29129
       O   -10.65284   -0.40717  -13.84289
      H1    -9.92583    0.28734  -13.93644
       H    -8.44200   -8.42767   -9.09389
       O    -7.76539   -7.72217   -8.96842
      H1    -7.50361   -7.44019   -9.89800
       H   -12.20143   -3.74561  -13.64339
       O   -12.18064   -3.32469  -14.53444
      H1   -12.45193   -4.01507  -15.21468
       H   -12.68166   -7.14745   -7.31585
       O   -13.32319   -7.24937   -8.03431
      H1   -13.47301   -8.18431   -7.87036
       H   -13.59220    0.38199  -13.33250
       O   -14.48813    0.58967  -13.74548
      H1   -14.91673    1.15107  -13.05478
       H   -15.64250   -6.69981  -14.88193
       O   -14.91397   -6.78231  -14.20981
      H1   -15.45685   -7.12604  -13.41368
       H    -9.42184   -1.13949  -15.41682
       O    -8.77052   -1.33225  -16.06474
      H1    -8.03162   -1.63048  -15.53860
       H   -17.45967   -6.51276  -16.20894
       O   -16.60264   -6.01247  -16.22711
      H1   -16.88056   -5.29915  -15.66914
       H   -12.48315    3.25243  -14.21405
       O   -12.06412    3.91169  -13.59495
      H1   -12.45332    3.67767  -12.75118
       H   -13.07899   -5.01291  -17.39186
       O   -13.45542   -5.04549  -16.49981
      H1   -13.84742   -5.96516  -16.37753
       H   -14.13069   -4.87939  -10.05772
       O   -13.58150   -4.57992   -9.24777
      H1   -13.17085   -5.38396   -8.83340
       H    -7.28056   -3.49957  -17.79011
       O    -6.67636   -3.12004  -18.41842
      H1    -6.35369   -3.75552  -19.06816
       H   -13.69104    1.52471  -15.03347
       O   -13.13310    2.13869  -15.51243
      H1   -12.30653    1.66010  -15.67423
       H   -15.85702   -5.41441  -11.52500
       O   -14.89729   -5.14633  -11.65143
      H1   -14.94903   -4.47239  -12.29130
       H    -7.22752   -5.19040  -16.68649
       O    -8.10246   -4.94933  -17.13442
      H1    -8.16474   -5.59744  -17.86922
       H   -16.84320   -1.41689  -16.61218
       O   -16.39348   -0.55777  -16.82520
      H1   -16.43843   -0.13195  -15.93803
       H   -11.36562   -8.47374  -16.11502
       O   -12.21975   -7.98685  -15.99633
      H1   -12.19893   -7.30989  -16.66778
       H    -4.93772   -5.12920  -15.96821
       O    -5.70829   -5.58547  -15.69493
      H1    -5.79561   -5.29870  -14.78661

