180
frame 4 | Written by MDAnalysis XYZWriter (release 2.4.3)
       H     5.21667   -1.12917    6.82534
       O     5.13599   -2.06929    6.82812
      H1     5.34171   -2.45262    7.68639
       H     8.06246  -15.86873    4.14010
       O     8.11425  -15.16633    4.76909
      H1     9.05414  -14.85289    4.53281
       H     8.06448   -9.07210   -2.18038
       O     8.26716   -8.92658   -1.17361
      H1     7.36475   -9.09575   -0.80711
       H    12.20146   -6.70154    2.27140
       O    12.80083   -7.07562    2.87432
      H1    13.69355   -6.79133    2.61096
       H     8.98013  -13.25356    3.23827
       O     9.74872  -12.74603    2.99519
      H1     9.49475  -11.90052    3.27117
       H     6.22344   -4.23410    2.86704
       O     5.36394   -4.38756    2.44096
      H1     5.47885   -3.74527    1.69854
       H     9.13583   -8.21124   10.40590
       O     9.51785   -7.75770    9.63231
      H1     9.86018   -6.92966   10.03441
       H    11.79835  -13.96517    1.21260
       O    12.74757  -13.78499    1.33528
      H1    12.75451  -12.95347    1.82950
       H     9.05901   -9.92529    4.77298
       O     8.56432  -10.64245    4.35512
      H1     7.78613  -10.14791    3.90862
       H     7.08525  -10.05993    7.39081
       O     6.22617   -9.90095    7.00566
      H1     6.10150  -10.82341    6.56916
       H    11.61121   -7.33805   -0.17659
       O    12.00018   -7.35791   -1.03410
      H1    12.77868   -7.84265   -0.82347
       H    11.92668   -4.46891   -0.28773
       O    11.41131   -4.14129    0.43981
      H1    11.04042   -3.28948    0.11883
       H    11.96062   -9.87575    9.52016
       O    11.65977  -10.20631    8.65383
      H1    10.72016  -10.53030    8.85688
       H    11.22130   -1.07826    5.94231
       O    10.33379   -0.81602    6.15773
      H1     9.94804   -0.54865    5.28734
       H     4.08754   -3.28774    3.79082
       O     3.45603   -2.59944    4.07389
      H1     2.61509   -3.08321    4.00180
       H     4.91886   -9.14917    6.28640
       O     4.16897   -8.78110    5.80914
      H1     4.07625   -9.37492    5.06826
       H     8.60227   -4.66967    4.31711
       O     7.87121   -4.95134    3.72283
      H1     7.47433   -5.64701    4.35469
       H    13.09461   -4.93169    4.15154
       O    12.42405   -5.33080    4.69692
      H1    12.37030   -6.19780    4.26594
       H     2.30078   -8.59792    7.31454
       O     1.56120   -8.02994    7.05045
      H1     1.53358   -7.85915    6.08808
       H     6.19491   -7.48929    9.53777
       O     5.85770   -8.12869   10.19649
      H1     5.72901   -7.61066   11.01041
       H     6.63805   -2.23200    5.01898
       O     6.89630   -2.17489    4.10784
      H1     7.54105   -2.87592    3.85720
       H     8.43715   -7.10152   -1.02172
       O     8.29959   -6.14230   -0.85082
      H1     7.63471   -6.17612   -0.19417
       H     2.94758   -7.44881    1.19683
       O     3.40535   -8.15927    1.75805
      H1     2.78686   -8.45536    2.48719
       H    12.37265   -6.87260   10.21364
       O    11.94601   -7.02682   11.14740
      H1    11.68278   -6.12790   11.46670
       H    12.92125  -11.38732    8.25519
       O    13.78924  -11.80604    8.23005
      H1    14.40456  -11.03471    8.13452
       H    14.22141   -3.93728    8.74673
       O    14.33330   -4.54762    9.46512
      H1    14.12842   -4.03889   10.27520
       H     4.77529   -6.96876    1.29126
       O     5.45871   -6.56631    0.72694
      H1     5.53181   -5.68365    1.15816
       H     9.40770   -7.81278    5.77854
       O     9.81060   -8.70173    5.71514
      H1    10.78142   -8.57731    5.58508
       H     8.91125   -9.99623   11.32691
       O     8.39396   -9.14817   11.62894
      H1     7.49204   -9.35113   11.28913
       H    11.94978  -10.57594    1.90564
       O    12.77788  -11.03434    2.05367
      H1    13.24563  -11.06791    1.18792
       H     7.33084  -13.45863    5.94518
       O     6.96290  -12.51026    5.92660
      H1     7.59743  -12.07635    5.32382
       H     5.93525  -10.85068    2.96137
       O     5.81958  -10.21968    3.69742
      H1     5.84402   -9.44677    3.16922
       H    12.34991   -8.95750    6.83105
       O    12.48412   -9.10730    5.88230
      H1    13.17728   -8.44001    5.76412
       H     8.11755  -11.55646    6.99150
       O     8.72561  -11.16106    7.62464
      H1     9.04719  -10.42027    7.05464
       H     3.49568   -5.67455    7.78609
       O     2.55828   -5.57566    7.61442
      H1     2.30180   -6.51340    7.40948
       H    12.46457   -8.75263   11.58381
       O    12.79030   -9.56105   12.04325
      H1    13.51740   -9.28462   12.63711
       H     5.86266  -12.75097    4.17160
       O     5.78653  -13.05003    3.17792
      H1     5.85938  -14.01820    3.28838
       H     7.65244   -5.72739    8.56936
       O     7.44400   -6.64603    8.36411
      H1     8.04284   -7.19573    8.82542
       H     9.41194   -2.23062    6.53682
       O     9.06808   -3.08507    6.94103
      H1     9.03097   -3.58258    6.09528
       H     9.50800   -7.09376   13.77136
       O     8.87893   -6.75818   13.09024
      H1     8.85318   -7.54268   12.51568
       H    14.34510   -7.43690    8.99229
       O    15.01668   -7.45674    9.72711
      H1    14.97350   -6.56253   10.05661
       H    11.30747  -14.71022    4.44168
       O    10.82960  -14.10023    5.00659
      H1    10.69876  -13.31418    4.47431
       H     7.27595   -3.57494    9.18196
       O     8.10693   -4.07036    9.02032
      H1     8.46059   -3.63188    8.18344
       H     4.78975   -6.15719    3.05834
       O     5.09256   -6.88300    3.63862
      H1     4.40096   -7.21919    4.20388
       H    12.17981   -6.75822    7.78948
       O    12.54628   -7.50699    8.27928
      H1    11.70911   -7.98016    8.42078
       H     8.95260  -11.66016   11.38902
       O     9.51118  -11.47929   10.57885
      H1     8.92041  -11.81190    9.92319
       H    13.41498  -13.34226    6.91303
       O    13.36275  -14.04157    6.23902
      H1    12.44512  -13.86232    5.93695
       H    13.71244  -11.80742    9.96974
       O    13.66840  -11.76622   10.92648
      H1    13.23088  -10.82712   11.05684
       H     6.23607   -8.47251    0.98468
       O     6.04391   -9.24472    0.47518
      H1     5.22873   -9.11008   -0.01061
       H    10.38972   -5.69366    1.23400
       O    10.52487   -6.66594    1.25060
      H1     9.82370   -7.02981    0.72282
       H    13.67750   -1.63703    4.87516
       O    13.00801   -2.22535    5.36363
      H1    13.39788   -2.27181    6.29786
       H    10.71679   -4.30182    7.59724
       O    11.41266   -4.98014    7.50674
      H1    11.85702   -4.55260    6.68252
       H    14.52394  -10.23960    3.13128
       O    15.38944   -9.86736    2.89685
      H1    15.83978  -10.72309    2.71219
       H     6.86080   -7.57923    2.87016
       O     7.49281   -8.24598    2.63746
      H1     8.28514   -7.84820    3.06209
       H     8.38266   -6.44036    6.96101
       O     8.96708   -6.17637    6.27226
      H1     9.62344   -5.75989    6.84626
       H    16.34989   -9.58250    4.32017
       O    16.85620   -9.18781    5.06032
      H1    17.59339   -9.76436    5.21124
       H    14.00436   -4.66466    1.97155
       O    13.48980   -3.93177    2.36351
      H1    12.78005   -3.88364    1.75446
       H    15.61051   -9.79168    6.49415
       O    15.00419   -9.54183    7.18503
      H1    14.13807   -9.82683    6.81853
       H    11.19122   -4.20274    4.66730
       O    10.49583   -3.53670    4.63342
      H1    10.94067   -2.85197    4.19405
       H     3.80265   -9.45153   10.17667
       O     3.66822   -9.53160    9.19048
      H1     4.44082   -9.02792    8.79790

