180
frame 1 | Written by MDAnalysis XYZWriter (release 2.4.3)
       H   -17.99235   11.53808   -8.44217
       O   -17.36423   12.02656   -8.97208
      H1   -17.32756   12.86125   -8.56492
       H   -13.36570   12.02369  -18.37549
       O   -14.06528   11.70047  -18.96951
      H1   -13.87563   10.71548  -18.87913
       H   -12.50763    9.21737  -14.58664
       O   -13.37220    9.64186  -14.19255
      H1   -13.97883    8.96438  -14.58174
       H   -19.81799   16.70378  -16.77340
       O   -18.96709   17.23684  -16.64142
      H1   -19.40834   18.16603  -16.60090
       H   -17.55709   16.66611  -17.68231
       O   -16.79515   16.05768  -17.63014
      H1   -16.26100   16.55281  -18.23552
       H   -19.16346   14.84028  -10.75291
       O   -19.62624   15.23816  -10.03041
      H1   -19.02710   15.98386   -9.80472
       H    -8.58307   18.54160  -19.11680
       O    -9.27672   19.25556  -19.32939
      H1   -10.13513   18.71053  -19.32797
       H    -8.57906   13.27357  -14.16052
       O    -9.02489   12.44486  -14.23175
      H1    -9.94633   12.72122  -14.39011
       H   -16.22869   14.78078  -14.36115
       O   -16.15053   15.38763  -13.56761
      H1   -16.70578   14.93690  -12.93887
       H   -14.27870   20.09280   -8.76549
       O   -15.09286   19.75791   -8.38608
      H1   -15.31356   19.08829   -9.00942
       H   -12.51960    9.87825  -12.42565
       O   -12.63949    9.71515  -11.46838
      H1   -12.90221   10.62497  -11.20625
       H   -16.37842   17.16866   -9.96631
       O   -15.43489   17.46236   -9.85915
      H1   -15.17988   17.31330  -10.74735
       H   -14.76669   15.92033  -12.44623
       O   -13.99021   16.46559  -12.13961
      H1   -13.80554   17.06677  -12.85123
       H   -16.16901    5.64753  -14.06769
       O   -16.76847    6.27877  -14.54075
      H1   -17.59073    5.87384  -14.33946
       H   -14.71729   10.67239   -8.45329
       O   -14.69275   11.46734   -7.96213
      H1   -15.55521   11.92896   -8.20736
       H   -11.53028    7.85341  -15.21152
       O   -11.23908    8.76197  -15.19672
      H1   -11.46948    9.10516  -16.07038
       H   -16.57016   16.62318   -6.26546
       O   -16.11263   15.91117   -5.87593
      H1   -16.85268   15.52120   -5.32358
       H   -16.63136   19.12961   -6.77049
       O   -17.07237   18.27816   -6.76376
      H1   -17.77748   18.52511   -6.12987
       H   -17.18077    7.26027  -17.38805
       O   -17.58733    6.38512  -17.09619
      H1   -17.12538    6.35476  -16.27226
       H   -12.65367   18.22626  -15.63645
       O   -13.14436   18.23425  -16.44977
      H1   -12.66981   17.63330  -17.01472
       H   -12.32893   19.38993  -13.69334
       O   -12.26999   18.42644  -13.58341
      H1   -11.42042   18.26331  -13.21234
       H   -11.73610    9.16630  -18.65145
       O   -11.85625    9.57662  -17.79614
      H1   -11.68056   10.50747  -17.94851
       H   -16.16948   12.05864  -15.01719
       O   -16.41087   11.37502  -14.35229
      H1   -15.92336   11.78492  -13.60145
       H   -16.72743   13.72395  -17.63817
       O   -16.77495   13.13766  -18.38869
      H1   -16.08502   12.44865  -18.14584
       H   -11.23968   17.04435   -6.96431
       O   -10.29570   17.16170   -6.93751
      H1   -10.04784   17.20285   -5.99358
       H   -19.15196   16.84683  -12.70413
       O   -18.28722   17.24261  -12.51558
      H1   -17.60028   16.59480  -12.83676
       H   -10.56630   14.17617  -10.49478
       O   -10.81736   13.51257   -9.87021
      H1   -10.80667   13.93790   -9.00477
       H    -9.27044   15.98701  -11.83372
       O    -8.90707   15.21771  -11.33108
      H1    -8.39999   15.61302  -10.61351
       H   -13.79515   14.30812  -19.54789
       O   -13.12914   14.45323  -18.86134
      H1   -12.92793   15.32257  -19.05659
       H    -8.87435   19.34008  -15.62746
       O    -7.87487   19.29147  -15.38104
      H1    -7.86645   18.47411  -14.92014
       H   -13.01810   15.09487   -7.61448
       O   -12.68593   15.97338   -7.92293
      H1   -13.22038   16.61522   -7.48196
       H    -7.85645   14.41429  -12.46112
       O    -7.42481   14.32922  -13.33307
      H1    -7.57775   15.20551  -13.75306
       H   -14.82297   18.33358  -16.21796
       O   -15.72597   18.24016  -15.79772
      H1   -16.01771   17.33485  -16.01631
       H   -11.07410   15.80773  -18.26419
       O   -11.47740   16.60030  -17.85872
      H1   -10.79854   17.28533  -17.89353
       H    -7.41643   17.33027  -17.43191
       O    -8.18676   17.07734  -17.96010
      H1    -8.19678   16.11513  -17.76522
       H   -16.33744   15.12080   -8.72124
       O   -16.02309   14.37697   -8.21062
      H1   -15.92387   14.78261   -7.34113
       H   -11.82472   16.27874  -14.15755
       O   -11.43373   15.56462  -13.61063
      H1   -11.95172   15.53626  -12.80979
       H   -12.86399   13.02738  -14.27615
       O   -12.04400   12.99352  -13.80323
      H1   -11.82629   13.93572  -13.70849
       H   -19.82486   11.34054   -7.11221
       O   -19.03657   10.80998   -6.96122
      H1   -19.52960   10.01657   -6.96680
       H   -17.22728   18.70004  -14.81575
       O   -17.87402   19.25093  -14.38295
      H1   -18.07449   18.64536  -13.62957
       H   -13.66855   11.38856  -15.42521
       O   -13.82140   12.21896  -15.85052
      H1   -12.97529   12.63660  -16.01766
       H   -12.54226   16.83440   -9.50996
       O   -12.13700   17.32516  -10.23654
      H1   -12.65596   17.00557  -10.99089
       H    -6.88657   14.06492  -17.44056
       O    -7.85612   14.13881  -17.54998
      H1    -8.06872   13.70595  -18.40814
       H   -18.19283   17.42434  -10.93514
       O   -18.06251   17.27069   -9.93086
      H1   -18.33281   18.16934   -9.60965
       H    -8.56236   11.37331  -18.59841
       O    -8.55767   11.86586  -19.47301
      H1    -9.29546   12.43672  -19.50469
       H    -9.63503   18.75094  -12.03366
       O   -10.07453   17.88194  -12.13284
      H1   -10.71636   17.89970  -11.42101
       H   -13.68916   12.28206   -9.39069
       O   -13.17448   12.23807  -10.24726
      H1   -12.50253   12.92964  -10.13521
       H   -10.27843   12.19164  -16.98791
       O   -11.20186   12.46068  -17.16797
      H1   -11.02912   13.19458  -17.72727
       H   -16.43427   18.85408   -4.77323
       O   -16.14845   19.08089   -3.84178
      H1   -16.53976   18.49787   -3.18535
       H   -18.85301   13.76625  -12.56366
       O   -18.06921   14.06928  -12.04843
      H1   -17.53173   13.25716  -12.16929
       H   -17.59808   10.11808  -11.45168
       O   -16.76680   10.32257  -10.96722
      H1   -17.12905   10.94485  -10.31566
       H    -7.01902   17.28579  -13.15844
       O    -7.56419   17.00914  -13.90323
      H1    -8.41540   17.04875  -13.50379
       H   -17.38267    9.61839  -18.07434
       O   -16.45418    9.26333  -17.92252
      H1   -16.41879    9.32785  -16.92050
       H   -15.90400   11.61784  -11.57419
       O   -15.76173   12.50375  -11.98672
      H1   -14.89640   12.77861  -11.66181
       H   -19.25123   12.07319  -13.97183
       O   -18.77021   12.55528  -14.67129
      H1   -17.90211   12.12409  -14.55930
       H   -14.38398   18.29464   -7.16935
       O   -13.87414   17.87553   -6.48148
      H1   -14.60042   17.30767   -6.21360
       H   -16.05056    9.56743  -14.56600
       O   -15.83891    8.85300  -15.14535
      H1   -16.23136    8.09502  -14.63471
       H   -15.49817    9.46315   -9.86682
       O   -14.86883    9.12925   -9.17806
      H1   -14.01496    8.90759   -9.66166
       H   -17.66126   13.85710  -15.46365
       O   -16.76010   14.07063  -15.79412
      H1   -16.92115   14.87196  -16.33772
       H   -19.08066   11.08385  -18.14089
       O   -19.02215   10.25816  -18.67858
      H1   -18.62201   10.68596  -19.41105

