180
frame 11 | Written by MDAnalysis XYZWriter (release 2.4.3)
       H     8.24746  -17.27671   -5.32121
       O     7.72306  -18.08489   -5.39933
      H1     6.78069  -17.76008   -5.40255
       H     0.96935  -16.88681   -9.88350
       O     0.59153  -17.71785  -10.16430
      H1     1.10092  -18.03353  -10.88385
       H    -0.04389  -12.34675   -5.84434
       O    -0.34264  -13.18833   -6.24564
      H1    -1.18608  -13.49919   -5.88278
       H    13.17427  -18.31290   -5.87875
       O    12.30325  -18.75312   -5.89620
      H1    11.67546  -18.19267   -6.32425
       H     1.15573  -10.98452   -4.56073
       O     0.97803  -10.95533   -5.49771
      H1     1.78431  -11.34217   -5.82086
       H     9.12150  -16.34895   -1.78267
       O     8.67954  -17.03085   -1.18474
      H1     8.64171  -16.56397   -0.35402
       H    -5.13637  -18.08579   -3.18414
       O    -4.24211  -18.42197   -3.29986
      H1    -3.80040  -17.88504   -3.95421
       H     8.75510  -13.04681   -4.12700
       O     8.29555  -13.89637   -4.27874
      H1     8.38320  -14.15419   -5.23898
       H    10.35588  -18.09467   -1.54441
       O    11.19563  -18.54151   -1.60674
      H1    11.13008  -19.45542   -1.83659
       H     5.44646  -17.87226   -1.72956
       O     6.04312  -17.40500   -2.27691
      H1     6.78381  -17.15570   -1.74300
       H     3.67977  -14.71771   -4.42527
       O     3.47809  -14.53080   -5.37811
      H1     2.56565  -14.92438   -5.41261
       H     4.51737  -18.20726    3.45706
       O     4.63515  -19.01052    2.98215
      H1     4.03741  -18.98828    2.24744
       H    -2.54083  -14.98285   -4.64615
       O    -2.29230  -14.05240   -4.50196
      H1    -3.16679  -13.60402   -4.47860
       H     6.42000  -17.95252   -9.85012
       O     6.09020  -17.01172   -9.97033
      H1     5.19696  -17.12736   -9.78555
       H    -0.57728  -13.01823   -3.66162
       O     0.02096  -12.55487   -3.07168
      H1    -0.52259  -11.79346   -2.82210
       H     5.51419  -16.37603   -6.11003
       O     5.07767  -16.94727   -5.50397
      H1     4.76533  -16.34913   -4.77936
       H     0.90604  -15.20303   -3.20539
       O     1.21091  -14.74510   -2.38391
      H1     0.89991  -13.83962   -2.51938
       H    -2.26859  -16.86859  -10.84940
       O    -2.73226  -17.72124  -10.52651
      H1    -2.29078  -17.85755   -9.64901
       H     5.20808  -13.42813   -9.02687
       O     5.72166  -12.99033   -8.34622
      H1     5.02776  -12.84100   -7.71799
       H     4.49817  -17.50162    0.67988
       O     4.76591  -16.61929    1.01022
      H1     4.43632  -15.97945    0.31882
       H     0.41371  -17.55364  -13.88140
       O     0.40060  -16.66478  -13.45804
      H1     1.33695  -16.39992  -13.26543
       H     9.57945  -14.74551  -10.21476
       O     8.90122  -14.04494  -10.28861
      H1     8.20845  -14.38564  -10.90417
       H     6.06080  -12.99895   -1.20755
       O     5.57743  -12.29299   -0.75309
      H1     6.20458  -12.07965    0.02776
       H     5.90172  -14.77553   -7.72515
       O     6.31052  -15.67998   -7.70729
      H1     6.28483  -16.12475   -8.57470
       H    11.39156  -18.12546  -10.17588
       O    11.96293  -17.86237  -10.93162
      H1    12.37683  -17.06798  -10.60136
       H     9.97816  -19.52033   -8.45414
       O    10.70712  -19.01545   -8.83002
      H1    11.55118  -19.44388   -8.59336
       H     3.78576  -11.19529   -6.20154
       O     3.52353  -11.86578   -6.86049
      H1     3.43732  -12.57301   -6.21315
       H     3.13717  -11.42548   -8.49736
       O     2.93680  -11.32550   -9.44017
      H1     1.99287  -11.35023   -9.66094
       H     7.03842  -14.18063   -2.95848
       O     6.55556  -14.29325   -2.08452
      H1     5.74125  -14.69382   -2.44830
       H    10.58899  -17.14856   -8.21976
       O    10.89907  -16.40695   -7.66025
      H1    10.04684  -15.91755   -7.43680
       H     3.71079  -19.17066  -12.12720
       O     3.12805  -18.40812  -12.10928
      H1     3.12588  -17.99980  -12.97386
       H    -0.68878  -19.77778   -3.51647
       O    -0.27092  -18.94896   -3.25691
      H1    -0.91405  -18.49487   -2.67093
       H    -1.51628  -13.72394   -9.44202
       O    -0.93185  -13.62554  -10.20370
      H1    -0.45863  -12.73849  -10.23142
       H     3.03376  -18.89789   -0.32431
       O     3.78246  -18.90459    0.27517
      H1     4.43662  -19.61115    0.01844
       H     7.56621  -15.80519  -12.55598
       O     6.95973  -15.24528  -12.03426
      H1     6.71203  -15.76922  -11.27277
       H     3.82860  -18.48616   -8.97849
       O     4.24013  -19.24209   -8.51722
      H1     4.24241  -19.13125   -7.52681
       H     2.48172  -15.54849  -14.38023
       O     2.67652  -15.33440  -13.47188
      H1     2.96027  -14.42192  -13.60866
       H     2.70037  -13.77555   -1.21146
       O     3.15896  -14.02889   -0.41401
      H1     4.01226  -13.60789   -0.51418
       H     0.24822  -15.11490    0.85353
       O    -0.15799  -15.60209    0.14274
      H1     0.43890  -15.55758   -0.65251
       H    -3.68991  -16.46697   -5.85121
       O    -3.08275  -16.70583   -5.11933
      H1    -2.21877  -17.00635   -5.48208
       H     3.05975  -17.32215  -10.61999
       O     3.46463  -17.19625   -9.75228
      H1     2.85525  -16.63788   -9.19736
       H    10.06110  -16.25815   -4.94115
       O     9.61272  -16.30947   -4.10477
      H1     9.03530  -15.55812   -4.09168
       H    -2.00871  -13.50181   -7.51475
       O    -2.66754  -13.99103   -7.92687
      H1    -3.19860  -13.34272   -8.42048
       H    11.26295  -16.17934   -3.19137
       O    11.89982  -16.01603   -2.49411
      H1    11.91676  -16.92823   -2.10016
       H    -0.40352  -18.63804   -8.84495
       O    -1.15836  -18.70048   -8.25161
      H1    -1.46223  -19.64380   -8.33953
       H    -1.66366  -20.20848  -12.09733
       O    -0.90373  -19.91638  -11.57986
      H1    -1.08399  -19.01395  -11.31247
       H    -1.40485  -19.19902    0.07865
       O    -2.24441  -19.51257    0.46403
      H1    -2.12243  -19.84325    1.33461
       H     4.27010  -16.50475   -2.46429
       O     4.03463  -15.60849   -2.83390
      H1     3.25724  -15.34783   -2.30813
       H     6.55721  -19.19253    2.42333
       O     7.46485  -18.89093    2.48408
      H1     7.33881  -17.95897    2.65069
       H    -3.04413  -17.52593   -2.25905
       O    -2.20146  -17.21579   -1.98554
      H1    -2.34945  -16.39545   -1.55026
       H     1.50670  -18.56764   -2.45142
       O     2.27079  -18.40076   -1.94235
      H1     2.97039  -18.50366   -2.66519
       H    10.46424  -18.57241  -12.18086
       O     9.61190  -18.88047  -12.45209
      H1     9.84907  -19.32800  -13.30197
       H     0.78938  -18.53777    1.18336
       O     0.66117  -19.18141    0.42723
      H1     1.10257  -19.97404    0.77375
       H    -0.54506  -18.05924   -4.87951
       O    -0.50056  -17.56073   -5.74854
      H1    -0.74242  -18.09825   -6.48988
       H     2.32041  -14.83518  -10.02376
       O     1.61176  -15.15450   -9.51018
      H1     0.88856  -14.50344   -9.69657
       H     3.58152  -13.02072   -9.99110
       O     3.86654  -13.88329  -10.31493
      H1     3.81544  -13.82124  -11.26858
       H     0.29480  -15.97051   -5.40252
       O     0.84586  -15.22656   -5.09780
      H1     0.54715  -14.39789   -5.49414
       H     5.21132  -16.52883  -13.93416
       O     5.00696  -17.16727  -14.60899
      H1     5.12014  -16.70619  -15.52177
       H     7.81861  -15.15534   -7.16513
       O     8.65631  -14.85990   -6.78216
      H1     8.86716  -13.95175   -7.08759
       H     3.79177  -19.74883   -5.10650
       O     3.92040  -19.24858   -5.91129
      H1     4.40681  -18.49782   -5.61330

