180
frame 7 | Written by MDAnalysis XYZWriter (release 2.4.3)
       H   -12.53605    7.41195   14.75090
       O   -11.80429    6.96993   15.18902
      H1   -11.84490    7.38008   16.06466
       H   -15.49945    2.84041   19.13453
       O   -15.09982    2.02029   18.77531
      H1   -15.61654    1.38247   19.28804
       H    -6.82824    5.32625   17.19748
       O    -6.83094    5.56019   18.20028
      H1    -5.99889    5.19698   18.48618
       H   -10.26767    7.18837   14.20866
       O    -9.51327    7.37167   13.66724
      H1    -8.79118    7.50654   14.26068
       H   -14.02218    7.01806   10.82909
       O   -14.52843    6.63974   11.59422
      H1   -15.37945    6.91612   11.19759
       H    -8.56789   15.33000   17.48542
       O    -9.25150   15.94850   17.80856
      H1   -10.00175   15.76525   17.20819
       H    -9.31272   15.11326   14.35808
       O    -9.65019   16.02797   14.38372
      H1   -10.22901   16.14474   13.57708
       H   -16.78496   15.44790   18.99046
       O   -17.11156   16.36643   19.24747
      H1   -17.94026   16.44952   18.82356
       H   -15.71144    2.97073   16.22791
       O   -16.40686    2.32759   16.31072
      H1   -16.21230    1.96549   17.20028
       H   -14.69732   14.50185   17.00252
       O   -13.95601   14.22760   16.43809
      H1   -13.52871   13.48425   16.87364
       H   -12.39098    9.56000   13.59377
       O   -12.03609   10.47706   13.63926
      H1   -11.33977   10.29073   14.29166
       H   -16.59269   15.56209   14.16791
       O   -17.14024   16.27357   14.53494
      H1   -16.77216   16.32928   15.42274
       H   -12.43455    3.48902   14.57076
       O   -11.70985    3.99750   14.12501
      H1   -11.63547    4.83016   14.60876
       H   -13.90373   16.71047   14.54097
       O   -13.76785   17.05325   13.63969
      H1   -13.72291   17.98937   13.87099
       H   -10.58271    5.42428   18.32638
       O   -11.27273    4.81924   18.04794
      H1   -11.12938    4.07357   18.64708
       H    -9.69191    1.74773   17.10797
       O   -10.05701    2.46000   16.58668
      H1   -10.22749    3.10148   17.27629
       H   -14.34338    8.30277   13.88840
       O   -13.52792    8.12345   13.49694
      H1   -13.78029    7.52405   12.72149
       H   -15.47445   17.90624   16.88196
       O   -15.80743   16.94191   16.96714
      H1   -15.96805   16.87171   17.93858
       H   -14.06199    3.61531   16.36028
       O   -14.66761    4.41259   16.16729
      H1   -14.72163    4.88484   17.01153
       H   -18.36320    5.63174   17.84998
       O   -17.81377    5.46127   17.07347
      H1   -18.00349    6.24054   16.54644
       H   -13.08283   18.43825   18.99732
       O   -12.36038   18.73404   18.41239
      H1   -12.07002   17.87677   18.08768
       H    -9.10667    3.23770   14.90066
       O    -8.33702    3.33909   14.28340
      H1    -7.62812    2.85759   14.73157
       H    -9.42589   12.64935   12.79195
       O    -9.74413   13.07224   13.57161
      H1    -9.90346   12.40204   14.26018
       H    -6.25301   10.80020   15.79557
       O    -6.46519   10.08467   16.38961
      H1    -6.80491    9.34355   15.85970
       H    -6.66397    8.12658   14.15757
       O    -7.23466    8.04309   14.92303
      H1    -6.92337    7.12779   15.14139
       H   -15.89520    9.79473   14.57104
       O   -15.70346    8.90976   14.88754
      H1   -16.57944    8.50104   14.77820
       H   -12.85316    9.19278   18.31936
       O   -12.25216    8.47627   18.04565
      H1   -12.79715    7.70809   18.15049
       H   -12.89621   -0.42714   18.06467
       O   -12.61897    0.30308   18.61198
      H1   -13.40530    0.87352   18.41207
       H    -9.38621   10.03123   16.07960
       O    -9.56684   10.20959   15.13085
      H1    -9.21809    9.37305   14.78127
       H    -6.99798   10.37165   19.50496
       O    -6.91718    9.47795   19.07556
      H1    -6.80371    9.65708   18.12690
       H   -16.42047   13.54796   18.51884
       O   -15.70137   14.13408   18.91055
      H1   -15.83704   13.79183   19.81435
       H    -6.70012   15.49092   18.25411
       O    -6.99163   14.66267   17.77832
      H1    -6.37476   14.62619   17.05215
       H    -7.47172   14.32402   13.87571
       O    -7.60068   14.21739   14.86710
      H1    -8.29454   13.56191   14.83448
       H   -17.50265    4.36857   13.71005
       O   -18.13004    4.09867   14.36358
      H1   -17.55541    3.95304   15.10522
       H    -8.58422    5.98874   12.85965
       O    -7.85286    5.44094   12.53048
      H1    -7.84596    4.63090   13.08197
       H   -13.17778   11.73388   18.63332
       O   -12.69937   12.58627   18.64117
      H1   -13.37243   13.24123   18.95697
       H   -12.58622   15.46529   16.45022
       O   -11.93134   16.17257   16.32233
      H1   -11.43302   15.81982   15.57133
       H   -11.01648   12.20433   12.13103
       O   -11.37167   12.26231   11.24768
      H1   -11.31211   11.40973   10.81100
       H   -18.46505    7.33158   13.75680
       O   -17.92499    6.90371   14.36498
      H1   -18.11864    5.95995   14.24276
       H    -6.50345   13.00759   14.44691
       O    -6.06703   12.11321   14.29948
      H1    -6.24227   12.01454   13.30361
       H   -19.87728    8.51742   16.19901
       O   -19.51756    8.66723   17.11610
      H1   -18.66255    9.18570   17.06668
       H    -6.11180    4.86682   15.27522
       O    -6.89017    5.29893   15.62664
      H1    -7.53673    4.58863   15.39200
       H    -8.73179    3.34975   19.63920
       O    -8.44603    3.59963   18.78592
      H1    -8.01937    4.47904   18.87406
       H   -14.73198    5.44870   12.98093
       O   -15.16345    4.81160   13.53271
      H1   -14.72410    4.94709   14.40515
       H   -16.40333   11.54372   12.51374
       O   -16.39028   11.66970   13.46105
      H1   -17.33896   11.78615   13.55245
       H   -13.46877    5.71689   19.53119
       O   -13.34898    6.13139   18.62308
      H1   -12.60142    5.55872   18.40672
       H   -13.03447    2.13378   11.81138
       O   -12.13943    1.98317   12.13810
      H1   -12.15579    2.70273   12.77444
       H    -9.21953   10.03854   18.69689
       O    -9.62196    9.65009   17.88629
      H1   -10.47418    9.31551   18.16393
       H   -19.79481   12.16999   13.90516
       O   -18.98539   12.30073   14.35591
      H1   -18.76838   13.19488   14.00856
       H   -17.40942   11.70145   17.63505
       O   -17.52842   12.68113   17.53818
      H1   -18.48913   12.68420   17.33667
       H   -14.91229   14.17925   14.81515
       O   -15.50576   14.15175   14.04951
      H1   -15.72477   13.22232   13.92860
       H    -3.48609    9.43377   15.56531
       O    -3.97748    8.80392   16.17770
      H1    -4.84659    9.17633   16.34222
       H   -10.70042    8.67457   11.26256
       O   -11.08803    9.58997   11.27919
      H1   -11.47633    9.73816   12.22002
       H   -16.54596    5.06058   19.58968
       O   -15.97872    4.55335   18.97844
      H1   -16.36644    4.62745   18.09923
       H    -8.60688    6.61501   18.33661
       O    -9.51580    6.88333   18.20428
      H1    -9.39078    7.82785   18.17828
       H   -13.19132    1.44853   15.80159
       O   -12.83565    2.28515   16.09026
      H1   -11.89249    2.14936   16.03519
       H   -12.70371    9.26821   10.30435
       O   -13.56446    9.26592    9.79999
      H1   -13.27275    8.97816    8.94934
       H   -13.30906   12.80983   11.75789
       O   -14.16595   13.29398   11.66347
      H1   -14.39328   13.45704   12.58467
       H   -19.17906    7.39762   11.41234
       O   -19.17632    7.98953   12.19794
      H1   -18.63999    8.71394   11.79137
       H   -16.39964    9.35627   16.57186
       O   -16.97726    9.70044   17.27391
      H1   -16.56227    9.33698   18.07397

