180
frame 118 | Written by MDAnalysis XYZWriter (release 2.4.3)
       H    -5.86650  -12.89191   17.00398
       O    -5.49216  -12.04456   16.58852
      H1    -6.24814  -11.63709   16.14640
       H     0.51257  -15.89743    7.80606
       O     0.35286  -16.71451    7.26442
      H1     1.05261  -17.33032    7.52782
       H    -8.76086  -13.07497    6.39553
       O    -8.50952  -12.78139    7.25399
      H1    -9.22788  -12.20638    7.48481
       H    -9.50451  -14.56137    4.57529
       O    -9.16540  -14.60625    5.49185
      H1    -9.95562  -14.62916    6.06112
       H    -9.03935  -14.41050   15.86537
       O    -8.25590  -14.94176   16.00434
      H1    -7.60563  -14.68079   15.29433
       H    -7.85171  -16.40100   12.18904
       O    -8.53434  -17.00613   12.44785
      H1    -8.07286  -17.43356   13.15946
       H    -5.55771  -10.68837    8.22977
       O    -5.76072  -11.09893    9.09283
      H1    -5.29701  -10.50399    9.73575
       H   -11.09097  -18.82132   12.67690
       O   -11.02381  -19.61213   12.15060
      H1   -10.99205  -19.12993   11.27125
       H   -11.30751  -16.71103   13.75053
       O   -10.69015  -17.45553   13.72149
      H1    -9.87449  -16.99210   13.50906
       H    -6.38538  -14.69685   12.78449
       O    -6.29146  -15.19662   11.95763
      H1    -5.35230  -14.97402   11.73187
       H     0.77305  -19.36987   18.53325
       O     1.11603  -18.87528   17.76327
      H1     0.32433  -18.34932   17.59239
       H     1.68288  -19.54700    7.46287
       O     1.79140  -18.78698    8.12544
      H1     0.97107  -18.94039    8.71553
       H    -0.55646  -19.37487   10.36044
       O    -0.00194  -18.60064   10.15593
      H1     0.61029  -18.74588   10.89283
       H    -0.72149  -16.99029    5.72328
       O    -1.48537  -17.13111    5.17010
      H1    -1.72658  -18.12600    5.21572
       H    -2.89327  -19.08052    3.54488
       O    -2.67987  -19.48100    4.44953
      H1    -3.55820  -19.76556    4.72358
       H    -6.50148  -18.38519   14.72084
       O    -7.44325  -18.37939   14.56956
      H1    -7.54866  -19.28275   14.13016
       H    -1.06416  -10.91210   13.18447
       O    -1.41802  -10.89085   12.30614
      H1    -2.06240  -11.63897   12.19385
       H    -2.25443  -15.52190    9.69447
       O    -2.15879  -16.46642    9.83340
      H1    -1.21418  -16.69799    9.60816
       H    -8.07426  -17.32574    6.33772
       O    -7.41243  -17.80373    5.85930
      H1    -7.35677  -18.59625    6.37611
       H    -2.44083  -18.07715    7.46754
       O    -3.21027  -18.42680    7.96964
      H1    -3.11253  -17.87655    8.75693
       H     2.63834  -18.41956   12.30323
       O     1.64796  -18.69040   12.33347
      H1     1.57830  -19.19234   13.15496
       H    -2.01873  -17.59694   13.63965
       O    -1.36461  -17.99585   14.25617
      H1    -0.69810  -18.32331   13.64017
       H    -6.55789  -18.10737   10.09970
       O    -5.89195  -17.53530    9.74536
      H1    -6.07353  -17.59390    8.78564
       H    -9.86657  -17.07967    7.33866
       O    -9.18188  -17.19811    8.03025
      H1    -8.93467  -16.33287    8.34682
       H   -10.05098  -17.30515   19.02647
       O   -10.87816  -17.82552   18.91665
      H1   -10.54170  -18.77762   18.98909
       H    -4.77539  -10.16920   11.96131
       O    -4.94105   -9.66634   11.12820
      H1    -4.39392   -8.86403   11.35969
       H    -6.53906  -18.49739   18.25558
       O    -5.63887  -18.77379   18.62166
      H1    -5.10537  -18.01369   18.32659
       H    -4.41355  -16.37743   14.41340
       O    -4.39859  -16.00841   15.32529
      H1    -5.32898  -15.93754   15.56887
       H     1.48693  -19.37729    4.29157
       O     1.90034  -18.78108    4.88649
      H1     1.34775  -18.75116    5.66850
       H     1.38983  -15.16756   10.02079
       O     1.67990  -15.27435    9.09908
      H1     2.63299  -15.05860    9.12110
       H    -5.19151  -14.55328    8.59654
       O    -5.28986  -13.97597    9.37175
      H1    -5.46252  -13.08247    9.08494
       H   -12.77724  -17.53933   10.60626
       O   -13.61816  -17.75932   10.94093
      H1   -14.06929  -16.97908   11.25232
       H   -12.39007  -14.54945   13.64806
       O   -12.13948  -15.33891   14.17640
      H1   -12.95359  -15.54817   14.61772
       H     1.02876  -15.65266   16.59736
       O     0.79100  -15.71845   17.57507
      H1     0.56820  -14.78280   17.73200
       H     0.27702  -14.82835   12.70372
       O     1.17669  -14.61183   12.45490
      H1     1.66312  -15.16593   13.07217
       H   -10.29664  -17.39721   10.67946
       O   -11.01230  -17.83645   10.17181
      H1   -10.58931  -18.17865    9.35035
       H   -11.46862  -15.22247    8.33070
       O   -11.41230  -14.25880    8.50765
      H1   -12.36766  -14.15692    8.66837
       H    -4.06069  -15.03860    5.24945
       O    -3.13441  -14.77401    5.03573
      H1    -2.64936  -15.59870    5.26575
       H    -3.35106  -13.50114    9.39667
       O    -2.42510  -13.68894    9.60283
      H1    -2.03669  -12.93468    9.14464
       H   -11.21274  -14.12924   15.08089
       O   -10.72915  -13.35642   15.44103
      H1   -10.30429  -13.08253   14.62599
       H    -5.61821  -18.72142   11.39577
       O    -4.90822  -18.98328   12.00604
      H1    -4.95136  -19.95737   12.18769
       H    -2.58314  -12.49534   16.35253
       O    -2.60254  -13.46445   16.55048
      H1    -3.52583  -13.66465   16.31224
       H    -3.74250  -17.56320   12.31959
       O    -3.19300  -16.78328   12.50390
      H1    -2.82220  -16.61802   11.60515
       H    -9.39434  -11.93708   12.69285
       O    -9.27635  -12.83250   13.00476
      H1    -9.47401  -13.38664   12.26898
       H   -10.44430  -14.09776   10.11475
       O    -9.72739  -14.14076   10.78055
      H1    -8.95461  -14.16302   10.14991
       H    -4.66749  -17.24073    6.29622
       O    -5.28269  -16.54521    6.58542
      H1    -6.17435  -17.07765    6.66260
       H    -2.38323  -13.61884   12.58516
       O    -2.90065  -12.96038   12.08341
      H1    -2.64386  -13.21781   11.16478
       H    -6.15833  -12.69729   14.18086
       O    -6.67372  -13.52707   14.06773
      H1    -7.37602  -13.10427   13.49327
       H    -4.33475  -10.69251   13.58259
       O    -4.95664  -11.36499   13.25371
      H1    -4.29224  -11.94889   13.01400
       H   -11.30091  -17.75735   17.12049
       O   -11.50877  -18.24692   16.26695
      H1   -11.28342  -17.68663   15.51245
       H    -7.79286  -17.04700    4.02259
       O    -8.30184  -17.16209    3.17850
      H1    -8.28879  -16.25079    2.81217
       H    -1.99821  -14.90246   14.25888
       O    -1.36156  -14.38282   13.74032
      H1    -1.10315  -13.71463   14.38170
       H    -7.99882  -13.94577    8.54621
       O    -7.84097  -14.77010    9.05409
      H1    -6.96621  -14.62072    9.46191
       H    -3.61101  -16.58102   17.17671
       O    -3.90303  -16.56610   18.12292
      H1    -4.64293  -15.94484   18.06396
       H    -5.80679  -14.12843   18.93424
       O    -5.87925  -14.58445   18.06277
      H1    -6.83644  -14.74529   17.98175
       H    -8.53244  -10.77706   15.70313
       O    -7.93120  -11.31685   16.29208
      H1    -8.39300  -12.13745   16.26634
       H    -0.65095  -16.82807   17.00622
       O    -1.23245  -17.60710   16.99537
      H1    -1.19177  -17.88719   16.09588
       H    -7.66929  -18.33817   16.52462
       O    -7.77564  -17.83298   17.34812
      H1    -7.65311  -16.89282   17.16193
       H    -8.66431  -19.86347   10.67690
       O    -7.92337  -19.36747   11.12122
      H1    -8.40445  -18.71198   11.64338
       H     2.73416  -16.74687   14.91396
       O     1.91122  -16.33117   14.70884
      H1     1.67168  -17.00384   14.07119

