180
frame 8 | Written by MDAnalysis XYZWriter (release 2.4.3)
       H     9.03386    8.24152    1.00662
       O     9.30440    8.15591    1.96044
      H1     9.37817    9.11390    2.17907
       H     9.51939    9.69317  -10.08985
       O    10.29762    9.53725  -10.64129
      H1    10.40966    8.57775  -10.42552
       H    15.37377   11.30362   -6.94378
       O    15.81937   11.77110   -7.68959
      H1    15.09772   12.31543   -8.02497
       H     8.36826   15.57272   -5.73451
       O     9.18825   15.74370   -5.28489
      H1     8.85973   16.21725   -4.39635
       H    12.62771   14.79020   -0.85204
       O    12.06410   15.29346   -0.26192
      H1    12.15770   16.22569   -0.55816
       H     5.15862    8.08647   -5.40167
       O     4.18606    7.84547   -5.27876
      H1     3.75470    8.45646   -5.92258
       H     5.35215   12.36116   -2.99737
       O     6.20795   12.53760   -2.70279
      H1     6.74894   12.23855   -3.43882
       H    13.24295    7.04232   -6.02674
       O    12.61405    7.57893   -5.51322
      H1    13.18415    8.23528   -5.15635
       H     9.43371   11.75049    1.58076
       O     8.58319   11.61234    1.16083
      H1     8.23451   12.49343    1.04328
       H    15.48738    8.92217   -5.80110
       O    14.81740    9.63745   -5.76789
      H1    14.67259    9.86039   -4.80838
       H    13.97603   15.10341   -2.63740
       O    13.43418   14.27663   -2.41626
      H1    12.62860   14.27554   -2.95894
       H    11.34465    5.96504   -4.61686
       O    10.66307    5.34098   -4.99365
      H1    11.05640    4.53635   -4.73379
       H     3.56960   11.74954   -2.01627
       O     3.50477   12.05064   -2.90226
      H1     3.25136   11.29031   -3.43149
       H    11.28475   11.48188   -1.77582
       O    12.17125   11.62057   -2.16398
      H1    12.62886   12.04128   -1.40689
       H     9.14347   11.31031   -8.50397
       O     9.97324   11.72560   -8.23493
      H1    10.65466   11.39659   -8.83525
       H     6.23202   10.19660   -0.68671
       O     6.44346   10.16616   -1.60880
      H1     6.29751   11.01536   -2.00617
       H     7.52487    7.41927   -7.09558
       O     7.95022    7.38182   -7.97991
      H1     7.29895    6.84490   -8.38435
       H     9.82823   16.14197   -8.35517
       O     9.75932   15.21812   -8.34758
      H1    10.47549   14.99499   -7.76997
       H    13.34604   10.27890   -2.64562
       O    13.83323    9.58210   -3.08651
      H1    14.36836    9.08937   -2.52066
       H     9.78208   13.71872   -1.05844
       O     9.59258   14.65183   -0.67487
      H1    10.34911   14.88314   -0.16535
       H     4.62528   11.09524    0.44031
       O     3.99543   11.62311   -0.07471
      H1     3.86022   12.41069    0.47828
       H    15.53163   12.38173   -1.67220
       O    15.41855   12.14760   -2.58399
      H1    14.65927   12.67097   -2.76898
       H    12.21123    8.29824   -7.07177
       O    11.81214    8.51360   -7.91823
      H1    11.37975    7.72594   -8.27490
       H     7.82237   18.97311   -3.16595
       O     7.76732   18.74678   -2.14963
      H1     8.45593   18.02172   -2.15712
       H    10.46454   14.46188   -3.94153
       O    11.11673   13.73723   -3.87307
      H1    10.84741   13.31594   -3.02856
       H     4.09981    6.28723   -3.99495
       O     4.36381    5.86969   -3.13285
      H1     5.28379    5.69317   -3.27652
       H     7.31303   10.19760   -9.89943
       O     7.86363    9.87982   -9.17463
      H1     7.50556    9.03402   -8.96426
       H     7.73208    6.82616   -1.69818
       O     6.95795    6.26897   -1.93469
      H1     7.33931    5.52387   -2.41603
       H     4.26027    9.72097   -9.33728
       O     4.90465   10.35422   -9.73278
      H1     4.45408   11.23362   -9.69799
       H     6.07816   11.37495   -6.42271
       O     6.92568   11.16338   -6.81350
      H1     6.73758   11.12943   -7.74015
       H     8.97341   11.74309   -0.53776
       O     9.62181   11.91525   -1.23122
      H1     9.14057   11.97226   -2.04743
       H     9.06574   11.41478   -4.66553
       O     8.76797   11.39299   -3.77446
      H1     8.13927   10.64896   -3.88365
       H    13.79231    8.83009  -10.45152
       O    14.17903    9.12042   -9.56543
      H1    13.48061    8.93657   -8.96463
       H     4.96031   15.15988   -2.34428
       O     5.68941   15.06290   -1.68222
      H1     6.04101   14.22511   -2.00873
       H    10.47494    7.99471   -3.42990
       O    11.03079    8.24417   -2.66323
      H1    11.58807    8.93063   -2.97972
       H    12.43532   11.57130    1.17929
       O    13.12242   11.62996    0.52459
      H1    13.27334   10.66589    0.27902
       H     6.74670   10.24927    1.61942
       O     5.91596   10.10862    1.12094
      H1     5.28225    9.82334    1.75935
       H     9.81568    8.20359   -5.51044
       O     9.26190    7.70332   -4.83951
      H1     9.43997    6.76802   -4.90371
       H     7.59508    8.43537   -5.08451
       O     6.83524    8.64010   -5.69469
      H1     7.12595    9.42948   -6.15602
       H    10.88360   11.64643  -10.77298
       O    11.63135   12.16873  -10.56612
      H1    11.30228   13.09382  -10.71585
       H     9.07932   17.97877   -7.28595
       O     9.81993   18.09179   -6.60332
      H1     9.76435   17.29258   -6.02790
       H     6.30426   14.87531   -9.95257
       O     6.04348   15.51197   -9.23985
      H1     6.49546   15.24213   -8.44158
       H    10.81873   15.03336   -9.87401
       O    11.06039   14.66120  -10.75972
      H1    10.19109   14.67639  -11.20068
       H     9.69697    4.95243   -7.49041
       O     9.75997    4.14546   -8.03430
      H1     9.35334    3.50915   -7.47308
       H     9.47032    8.60441   -1.28723
       O     8.61653    8.39787   -0.80533
      H1     8.08221    9.10507   -1.19296
       H     4.82268    8.82574   -1.53818
       O     3.97414    8.40470   -1.57029
      H1     4.30806    7.56559   -2.04206
       H    13.29176    8.59639    0.35589
       O    14.02972    8.80726   -0.30245
      H1    14.34332    7.95070   -0.54560
       H     8.15369   14.56086   -7.56698
       O     7.27966   14.58410   -7.12814
      H1     7.31159   13.67732   -6.85999
       H     6.69532   14.58219    1.40854
       O     6.79480   13.70499    1.01280
      H1     6.43632   13.66966    0.14617
       H    14.05201   15.13171   -5.16597
       O    14.14209   16.00509   -5.51611
      H1    13.71623   15.68579   -6.31508
       H    13.45518   14.15926   -8.29207
       O    13.33348   15.09018   -8.37336
      H1    13.90409   15.35131   -9.10370
       H    12.50177   12.23110   -8.84293
       O    12.96527   11.95014   -8.03438
      H1    13.35174   11.16493   -8.42727
       H     4.45998   13.62171   -8.71087
       O     4.14825   13.10964   -9.44009
      H1     4.78891   13.19608  -10.11483
       H    11.07153    9.71288   -6.34196
       O    10.27196   10.09700   -5.99930
      H1    10.11405   10.75276   -6.73048
       H    12.56426   12.86037   -4.44155
       O    13.35618   12.63656   -4.89083
      H1    12.93061   12.11834   -5.60199
       H     2.75208   15.07205   -3.38196
       O     3.59919   15.08109   -3.78320
      H1     3.51208   15.98958   -4.10159
       H     3.87842   12.39078   -5.92413
       O     4.45953   11.80374   -6.47839
      H1     3.90016   11.06570   -6.62328
       H     5.66104   18.27301   -6.49667
       O     5.87896   17.61123   -5.88003
      H1     5.43088   17.94181   -5.10012
       H     9.77346   15.91125   -1.94156
       O     9.72767   16.60240   -2.58272
      H1    10.54857   17.08398   -2.40923
       H     6.83435   18.16821   -0.67566
       O     6.34268   17.39221   -0.32338
      H1     6.24936   16.77118   -1.05206

