180
frame 2 | Written by MDAnalysis XYZWriter (release 2.4.3)
       H    -2.26704    0.51637  -13.50952
       O    -1.62799   -0.03693  -13.03136
      H1    -2.22298   -0.38623  -12.33384
       H    -2.02351   -3.04744  -13.39237
       O    -2.16923   -2.53032  -14.19357
      H1    -1.88408   -1.65813  -13.98435
       H    -3.78339    2.01757  -18.21944
       O    -2.96229    1.94699  -17.63563
      H1    -2.58298    1.18691  -18.06405
       H    -6.26802    2.22942  -17.95029
       O    -6.96587    2.23517  -17.21436
      H1    -7.17787    1.30389  -17.11068
       H    -6.25807   -2.21803   -9.98441
       O    -6.92451   -2.28193  -10.71261
      H1    -7.55551   -1.62282  -10.43180
       H     2.43969    1.56910   -9.63244
       O     1.75351    2.10516  -10.04678
      H1     1.21090    1.59515  -10.60336
       H    -4.40670    5.72940  -18.30941
       O    -3.64799    5.39256  -18.79906
      H1    -3.18811    4.90921  -18.05689
       H    -3.22123    4.07130  -12.46419
       O    -3.92945    3.82807  -13.12475
      H1    -4.40015    3.21523  -12.56201
       H    -4.93576    1.55996  -14.67442
       O    -5.91147    1.47914  -14.72870
      H1    -6.05539    1.83955  -15.64864
       H    -6.60360    5.81030  -15.31336
       O    -7.07691    6.48042  -14.77713
      H1    -7.19273    5.94977  -13.93789
       H     3.33837    1.39196  -13.04434
       O     4.24577    1.11499  -12.83330
      H1     4.54493    1.87922  -12.27597
       H    -5.44129   -1.53517  -14.28670
       O    -5.46527   -1.04428  -15.13892
      H1    -5.67217   -0.16122  -14.74969
       H     0.99279    4.86851  -13.55069
       O     1.74159    5.05477  -12.94456
      H1     1.86477    4.21295  -12.48377
       H    -3.90489    7.40001  -15.41155
       O    -4.62324    8.02501  -15.52475
      H1    -5.42646    7.52385  -15.27557
       H    -4.41036   -0.70545  -16.75276
       O    -4.41314   -0.79263  -17.73610
      H1    -5.31126   -1.17675  -17.89160
       H     0.83393   -2.64048  -12.82215
       O     0.58156   -2.64691  -11.88710
      H1     1.17305   -3.35138  -11.58222
       H    -1.35236    4.70546  -10.42510
       O    -1.75212    3.90693  -10.78214
      H1    -1.91626    3.33689   -9.98926
       H     1.19131    2.23463  -13.31543
       O     1.82375    2.06973  -14.01279
      H1     2.00231    3.00255  -14.32684
       H    -0.57809    1.36277  -12.32528
       O    -0.03984    2.10870  -12.16376
      H1    -0.65601    2.67744  -11.64515
       H    -6.06352   -5.11105  -13.78605
       O    -5.94806   -4.91002  -12.88190
      H1    -6.87491   -4.55165  -12.75923
       H     1.99911   -0.70118   -9.88178
       O     1.12027   -0.56422  -10.17745
      H1     0.82190   -1.38057  -10.56793
       H     0.30623    4.28974  -19.37749
       O    -0.46155    4.47871  -18.82065
      H1    -0.41903    3.71300  -18.23544
       H     4.18320    1.58963  -19.38382
       O     3.37672    1.90863  -19.03274
      H1     3.29715    1.32621  -18.23390
       H    -8.57430   -2.32014  -13.65930
       O    -8.22067   -1.58281  -13.21904
      H1    -7.49304   -1.96447  -12.73180
       H     2.42158    0.36852  -16.32884
       O     3.30106    0.42884  -16.54176
      H1     3.68904    0.70342  -15.72640
       H    -1.13461   -2.69110  -17.34816
       O    -1.25142   -3.43716  -16.70680
      H1    -1.45627   -2.96633  -15.88688
       H     2.45747   -1.47850  -12.10183
       O     3.38325   -1.43542  -11.88926
      H1     3.71538   -0.63335  -12.33427
       H    -7.42591    4.42472  -12.36061
       O    -7.00697    5.28559  -12.42902
      H1    -7.63770    5.87012  -12.02775
       H    -0.29776    0.13981  -19.23508
       O    -0.90387   -0.03219  -18.48236
      H1    -1.26151   -0.87036  -18.72034
       H    -3.06999    1.42454  -15.70127
       O    -3.24022    1.44341  -14.71138
      H1    -3.03686    2.40320  -14.46306
       H    -1.41892    7.61956  -18.06244
       O    -1.79161    8.03234  -17.25279
      H1    -1.83700    8.98441  -17.41455
       H    -1.33603   -3.38079  -11.76888
       O    -2.10175   -3.96417  -11.86143
      H1    -1.72492   -4.78651  -12.28910
       H     1.17671    5.32679  -17.47170
       O     1.63988    5.23205  -16.64632
      H1     2.21399    5.97152  -16.47056
       H    -3.87660    6.87917  -12.85807
       O    -3.80325    7.02270  -11.86929
      H1    -4.60562    7.52316  -11.67808
       H    -2.79859   -3.72334  -17.42607
       O    -3.53100   -3.82849  -18.05377
      H1    -3.98426   -2.96835  -18.05178
       H    -3.95091   -1.61491  -11.68409
       O    -3.64861   -0.80930  -11.19931
      H1    -4.21407   -0.05152  -11.35371
       H    -8.27311    2.16553  -12.02559
       O    -7.45880    2.62038  -12.34011
      H1    -7.12635    2.00512  -13.03746
       H   -11.42099    0.16527  -17.01289
       O   -11.14234    0.87427  -17.62846
      H1   -10.25730    1.04963  -17.35442
       H    -9.41518   -1.57047  -17.14763
       O    -9.59123   -2.53563  -17.15537
      H1    -9.61788   -2.71738  -18.10285
       H    -6.60659    5.85275  -17.97939
       O    -5.90858    6.33924  -17.51192
      H1    -6.06082    7.18127  -17.93419
       H    -5.51948    4.67976  -10.94877
       O    -5.12570    4.44336  -10.08773
      H1    -4.27292    4.86441  -10.28789
       H    -9.42792   -0.52140  -13.42655
       O   -10.16616    0.06783  -13.64711
      H1    -9.86608    0.88262  -13.24849
       H    -1.00545    8.05497  -15.59249
       O    -0.59301    7.75237  -14.77679
      H1    -1.01783    8.31960  -14.13943
       H    -7.89760    3.66511  -17.69947
       O    -7.99891    4.46838  -18.21780
      H1    -8.85049    4.82763  -18.02031
       H    -8.94115    0.19008  -15.24720
       O    -8.80320   -0.00393  -16.17913
      H1    -7.94266   -0.49351  -16.22309
       H     1.31354    6.58383  -12.38325
       O     0.86180    7.33679  -11.89775
      H1     1.25776    8.06244  -12.34825
       H    -4.04037    8.63374  -18.84033
       O    -4.65182    9.10827  -18.17951
      H1    -4.53836    8.62149  -17.38779
       H     0.37518    4.70527  -15.39967
       O    -0.41294    4.86474  -14.87245
      H1    -0.34841    5.80509  -14.77308
       H    -2.11853    2.44453   -8.11407
       O    -2.77811    2.29653   -8.82477
      H1    -2.53630    1.36919   -9.03658
       H    -3.90146   -2.69477  -13.38703
       O    -4.79080   -2.50715  -12.97570
      H1    -5.13994   -3.40193  -12.71270
       H    -0.69653    3.17759  -15.87428
       O    -0.38197    2.81561  -16.72492
      H1    -1.13683    2.33024  -17.13094
       H    -4.19961   -1.80357  -10.00136
       O    -4.25918   -2.41646   -9.22640
      H1    -3.38049   -2.27228   -8.82557
       H    -6.97245   -2.77248  -18.15816
       O    -6.79018   -2.02286  -18.73265
      H1    -6.47054   -2.44150  -19.53251
       H     4.02492   -1.15736  -15.79209
       O     4.70338   -1.89660  -15.85869
      H1     5.07355   -1.79824  -16.74131
       H    -4.80394    2.09500  -10.51557
       O    -4.87932    1.64056  -11.32658
      H1    -5.80472    1.79090  -11.57799
       H     0.18602    0.73300  -15.82745
       O     0.60406   -0.01103  -16.29146
      H1     0.15502   -0.10122  -17.12973
       H    -3.78340    4.89962  -14.69627
       O    -3.48228    5.56854  -15.36244
      H1    -2.51549    5.53264  -15.34741
       H    -6.74304   -4.88481  -16.67671
       O    -6.50673   -4.41965  -17.47125
      H1    -5.52474   -4.33091  -17.35981
       H     1.70223   -4.74238  -17.26988
       O     1.40506   -4.16748  -16.50079
      H1     0.45412   -4.03772  -16.67007
       H     1.57717   -2.75810  -15.37324
       O     1.68173   -2.03606  -14.65683
      H1     1.24290   -1.25713  -15.08084

