180
frame 4 | Written by MDAnalysis XYZWriter (release 2.4.3)
       H    -9.63673  -16.04350   -8.03393
       O    -9.12613  -16.08428   -8.88751
      H1    -8.87604  -17.02096   -9.06081
       H   -10.65615  -16.51821   -3.79895
       O    -9.89102  -16.02266   -4.12713
      H1    -9.17174  -16.61562   -4.30465
       H   -18.03110  -13.19713  -10.99335
       O   -17.41046  -12.71301  -11.54716
      H1   -17.08105  -12.07343  -10.91840
       H    -9.81972  -15.14083  -15.94760
       O   -10.18206  -14.49941  -15.31773
      H1    -9.47682  -13.99165  -14.89544
       H    -6.70022  -10.24509  -10.81041
       O    -6.61860   -9.70696  -11.62568
      H1    -5.73273   -9.39809  -11.57051
       H   -11.24056  -15.27986  -11.62596
       O   -11.18844  -15.06636  -10.69307
      H1   -10.44488  -15.48501  -10.23233
       H    -9.68318  -10.11791  -13.07174
       O   -10.07607  -10.95350  -13.20599
      H1    -9.46589  -11.54261  -13.73804
       H   -11.44100   -5.76118  -10.06838
       O   -11.91398   -5.65119   -9.21824
      H1   -11.74615   -4.74002   -8.91250
       H    -8.00632  -15.80346  -12.67057
       O    -8.09398  -14.81488  -12.66513
      H1    -7.90391  -14.55926  -13.56890
       H   -13.63667   -9.10015  -11.28899
       O   -14.44501   -9.19504  -11.78458
      H1   -15.13971   -9.51176  -11.18643
       H    -9.03714   -5.98146   -4.93445
       O    -9.00903   -5.83378   -4.01217
      H1    -9.81930   -5.28529   -3.82362
       H    -6.26044  -14.87338  -12.13215
       O    -5.29913  -14.64523  -12.00661
      H1    -5.35568  -13.71158  -12.26474
       H    -8.36731   -4.48257   -9.58779
       O    -7.73894   -4.92166   -8.98553
      H1    -7.73647   -5.80543   -9.34836
       H   -10.62913  -11.53056   -9.78306
       O   -10.39641  -11.13910   -8.90508
      H1   -10.87921  -11.66784   -8.29315
       H   -12.35861  -16.16077  -13.40353
       O   -11.41789  -15.94430  -13.28676
      H1   -11.07323  -15.48512  -14.05068
       H   -10.43863  -13.48282   -6.42361
       O   -10.48588  -12.51595   -6.31236
      H1    -9.76793  -12.29469   -5.70120
       H   -14.60304  -10.22145  -13.27541
       O   -14.97023  -10.73357  -14.01214
      H1   -15.94248  -10.62942  -13.88987
       H    -8.16017  -17.94315   -5.44357
       O    -7.69953  -17.15695   -5.24249
      H1    -7.39967  -16.88470   -6.08738
       H    -7.49174  -12.59857  -14.13420
       O    -8.36238  -12.66613  -14.57034
      H1    -8.23521  -12.57190  -15.53285
       H    -5.56552  -15.63641   -7.21786
       O    -6.35878  -16.18285   -7.51312
      H1    -6.50053  -15.69116   -8.32947
       H   -16.97505   -9.58033  -10.44364
       O   -16.43144  -10.37628  -10.51649
      H1   -16.09505  -10.46055   -9.58113
       H   -14.42727  -12.04591  -12.98946
       O   -14.08778  -12.54267  -12.25116
      H1   -13.23363  -12.19301  -11.93503
       H   -12.41334   -9.79079   -9.01158
       O   -12.79983   -8.99629   -9.36246
      H1   -12.86003   -8.46765   -8.54617
       H    -8.10012   -5.90939   -7.60281
       O    -8.08189   -6.30579   -6.72277
      H1    -7.15032   -6.42371   -6.48543
       H    -3.67327   -9.45381  -12.45051
       O    -3.94194   -9.61034  -11.52844
      H1    -3.34068   -9.16043  -10.93746
       H   -11.18853   -8.01299  -10.29204
       O   -10.85304   -7.61674  -11.11393
      H1   -11.57132   -7.62479  -11.73067
       H    -5.82159  -11.87615  -13.95715
       O    -6.22318  -12.12507  -13.10343
      H1    -6.48439  -11.34490  -12.62015
       H    -7.64362   -9.12541  -13.23379
       O    -7.94966   -8.80049  -14.09295
      H1    -7.91596   -7.84968  -13.98531
       H   -15.09472   -7.88991   -4.83048
       O   -14.38880   -7.25816   -4.98258
      H1   -14.01945   -7.51756   -5.84793
       H    -7.26039   -8.21584  -10.29001
       O    -7.06604   -7.61868   -9.52630
      H1    -6.20174   -7.24209   -9.63080
       H   -12.43725   -6.78940   -7.84839
       O   -12.58765   -7.34223   -6.99714
      H1   -11.66827   -7.44680   -6.69338
       H   -11.85414  -10.44607   -4.83394
       O   -11.08889  -10.33801   -4.26591
      H1   -11.43916  -10.01748   -3.45773
       H    -9.78604  -14.46558   -2.83015
       O    -9.57403  -13.59268   -2.52232
      H1   -10.44368  -13.18994   -2.20319
       H    -4.32118  -14.23322  -10.05342
       O    -3.46285  -13.81666   -9.78445
      H1    -3.69068  -13.18608   -9.04120
       H   -10.55662   -8.87688   -5.47775
       O   -10.39335   -7.96546   -5.78081
      H1    -9.48617   -7.89459   -6.08616
       H   -16.05850   -9.70199   -5.54649
       O   -15.99387   -9.59833   -4.61058
      H1   -16.89410   -9.43771   -4.29280
       H    -7.08501   -6.27941   -4.20537
       O    -6.32809   -6.85595   -4.34962
      H1    -6.74336   -7.72501   -4.63310
       H    -7.83057   -9.85865   -5.68814
       O    -7.21359   -9.70426   -4.95762
      H1    -7.44833  -10.32689   -4.22016
       H   -10.87153  -12.13141  -12.00500
       O   -11.34401  -12.32088  -11.20691
      H1   -11.18478  -13.31456  -11.01847
       H    -2.75983  -11.54755   -7.56062
       O    -3.44986  -12.29352   -7.63803
      H1    -4.27023  -11.89998   -7.29929
       H   -13.06656   -8.46268   -2.60407
       O   -12.75147   -9.31848   -2.25245
      H1   -13.31505  -10.08640   -2.61576
       H   -13.80616   -7.69893  -12.55770
       O   -13.10410   -7.01142  -12.64823
      H1   -12.71932   -6.91678  -13.57123
       H    -9.26662   -9.03992   -3.47804
       O    -9.19303   -8.32704   -2.86979
      H1    -9.35043   -7.50270   -3.30865
       H    -8.03184  -12.31263   -2.87391
       O    -7.29850  -11.64798   -2.94113
      H1    -6.89786  -11.79535   -2.06349
       H   -15.11946  -10.86333   -3.94441
       O   -14.50930  -11.36467   -3.36265
      H1   -15.11460  -11.67527   -2.67077
       H    -6.88346  -14.00598  -10.64345
       O    -6.98354  -14.30820   -9.73970
      H1    -7.90289  -14.60278   -9.71252
       H   -13.75682  -12.91985   -3.95050
       O   -13.10212  -13.62033   -4.24967
      H1   -12.35743  -13.12713   -4.66739
       H   -11.68260  -15.24337   -6.57274
       O   -10.72651  -15.28931   -6.63967
      H1   -10.44451  -15.61141   -5.78160
       H   -11.86302  -11.42749   -6.38514
       O   -12.56326  -10.79158   -6.32127
      H1   -13.39457  -11.20081   -6.63532
       H   -14.57173  -13.25402   -7.75858
       O   -14.54567  -12.38776   -7.25351
      H1   -15.28166  -11.82930   -7.51448
       H    -6.07748  -10.48042   -6.28702
       O    -5.78925  -11.20192   -6.84801
      H1    -6.39619  -11.28469   -7.62659
       H   -15.18440  -14.93153  -10.10258
       O   -16.06303  -15.16964  -10.41927
      H1   -16.39707  -14.37563  -10.73596
       H    -8.61044   -8.87894   -7.76249
       O    -8.51988   -9.76112   -7.37636
      H1    -9.16440  -10.33992   -7.86563
       H    -7.61096  -11.94455   -9.15308
       O    -6.99472  -11.19378   -9.30108
      H1    -7.42630  -10.50225   -8.80722
       H   -12.91048  -15.29327   -9.77213
       O   -13.67594  -15.13228   -9.18368
      H1   -13.59800  -15.42465   -8.29213
       H   -17.20981  -11.18167   -7.33531
       O   -16.55844  -10.44484   -7.39269
      H1   -17.04865   -9.65616   -7.67784
       H   -14.54513  -15.87983   -5.83178
       O   -13.97539  -15.40372   -6.42397
      H1   -14.01133  -14.65395   -5.84444
       H   -12.41212   -5.46160   -5.77383
       O   -12.03402   -4.57516   -5.48187
      H1   -11.13093   -4.56685   -5.96983
       H   -11.73179   -9.60410  -16.24839
       O   -11.67756   -9.29769  -15.30437
      H1   -11.35120  -10.06694  -14.77414
       H   -13.80119   -5.87807  -11.25039
       O   -14.29464   -5.49469  -10.49582
      H1   -13.65010   -5.37981   -9.77178

