180
frame 6 | Written by MDAnalysis XYZWriter (release 2.4.3)
       H    -0.89292    2.77240   14.34214
       O    -1.24837    3.34398   15.02665
      H1    -1.34776    4.17812   14.52760
       H     5.99803    3.46809   18.12910
       O     5.72683    4.27963   17.59747
      H1     5.19928    4.82918   18.15699
       H     5.45234   10.95741   14.50121
       O     6.27056   11.38306   14.26656
      H1     6.00458   12.25398   13.95177
       H     2.93824   11.91537   19.56620
       O     2.39479   12.59267   19.10456
      H1     3.07907   13.20052   18.76965
       H     3.61836    8.44503   15.75155
       O     3.03585    9.21622   15.69416
      H1     2.28866    8.79900   15.27279
       H    -6.46554    5.43585   17.15832
       O    -6.78376    5.68634   18.03125
      H1    -6.10665    5.46478   18.66526
       H    -3.16170    5.34800   18.69245
       O    -2.92333    5.25628   17.74337
      H1    -1.97555    4.96001   17.81602
       H    -0.44212    2.89046   17.86144
       O    -0.62155    3.79139   17.56053
      H1    -0.81462    3.73022   16.62382
       H     0.22288   15.92804   16.37282
       O     0.39044   15.16229   17.00569
      H1    -0.46986   14.99241   17.39226
       H     8.84732   10.91082   17.15635
       O     8.10732   11.52077   17.12187
      H1     8.06158   11.64114   18.09885
       H     2.63723   10.57806   14.70073
       O     2.35316   11.30073   14.06762
      H1     1.40577   11.34073   14.31684
       H     4.95894   10.38711   16.97321
       O     5.65979    9.64357   17.09819
      H1     6.51107   10.08466   17.27148
       H     2.89590   11.02310   12.51134
       O     3.39367   11.05777   11.64426
      H1     3.29177   10.10608   11.44260
       H    -2.51915    9.19114   19.41931
       O    -3.23106    9.49690   18.81867
      H1    -2.93361    9.31526   17.96732
       H     3.60414    8.52060    9.75531
       O     3.12323    8.43307   10.64410
      H1     3.75635    8.10810   11.26223
       H    -2.55525    1.19383   16.32102
       O    -2.17584    0.33039   16.49511
      H1    -1.40464    0.57732   16.96807
       H     9.67960   10.76878   19.79840
       O    10.34778   10.90106   19.11786
      H1    10.23452   11.80336   18.85084
       H     5.97386    7.89439   12.52546
       O     5.01307    7.74830   12.58410
      H1     5.04417    6.76994   12.46626
       H     2.20550    6.40570   11.43780
       O     2.75381    5.59904   11.53031
      H1     2.15039    5.02575   12.03877
       H    -3.15785   11.09887   18.13763
       O    -2.74259   11.97798   17.92535
      H1    -2.39338   11.94033   17.02627
       H     5.61238    3.17220   14.57580
       O     5.24356    2.45605   15.13489
      H1     5.50515    2.74888   16.03120
       H     2.46529    0.68065   17.51067
       O     2.35774   -0.17727   17.95424
      H1     3.24683   -0.55900   18.03782
       H    -0.18703    6.68706   16.29781
       O    -0.86460    7.40022   16.37214
      H1    -1.60887    6.90133   15.94502
       H    -0.21968   10.73655   15.50262
       O    -0.23295   10.13941   14.76497
      H1    -0.02499    9.31137   15.21731
       H     2.69974    5.79001   15.23706
       O     3.40525    5.73104   14.54743
      H1     4.12686    6.00530   15.18904
       H    -2.36236   14.36866   15.03160
       O    -1.73155   13.85063   14.50149
      H1    -2.18259   12.95972   14.50014
       H    -2.07584    6.08991   10.87726
       O    -1.18028    5.75967   11.16217
      H1    -0.64110    6.59599   11.05053
       H     2.96415    6.73334   19.19034
       O     2.14215    6.16525   19.06858
      H1     1.66575    6.15579   19.89695
       H     9.75452    8.78676   15.67668
       O    10.05184    9.42234   16.42501
      H1     9.93124    8.90343   17.26615
       H     0.93196    4.84583   16.55166
       O     1.26273    5.76015   16.36423
      H1     1.60941    6.00373   17.22987
       H     1.95675    7.79086   18.73108
       O     1.71044    8.72319   18.39441
      H1     1.85811    8.61656   17.45653
       H     1.03334   16.24156   18.27295
       O     1.37717   17.03662   18.83145
      H1     2.00553   17.48127   18.19618
       H     6.98870    1.67581   18.01162
       O     6.52549    1.95210   18.85236
      H1     7.32403    2.29351   19.30909
       H     0.85923    0.58795   18.58630
       O     0.07959    1.13262   18.50462
      H1    -0.06876    1.45742   19.41887
       H     4.13325   15.30659   18.90861
       O     4.47569   14.53444   18.46712
      H1     5.10568   14.85012   17.82756
       H     2.61186    2.82203   17.47670
       O     2.62272    2.63193   16.53373
      H1     3.49347    2.71367   16.21218
       H    -4.26456    5.29470   14.30007
       O    -4.68762    4.42872   14.27004
      H1    -4.76358    4.32515   13.28737
       H     5.65550    8.15848   15.84477
       O     5.58335    7.25237   15.46639
      H1     5.44700    7.45742   14.51070
       H     3.96673    1.53576   13.76772
       O     3.65878    1.69304   12.85813
      H1     3.22831    0.87118   12.59921
       H    -5.70917   13.92133   17.29478
       O    -5.05608   13.46797   16.74003
      H1    -4.51072   12.94891   17.31814
       H    -3.30418    3.47713   16.68315
       O    -3.97898    2.82860   16.46510
      H1    -4.33937    3.38272   15.77135
       H     5.42505   15.34494   15.38636
       O     5.53368   14.50889   15.89204
      H1     6.53080   14.50512   15.81776
       H     0.51034    2.83026   12.91892
       O    -0.16261    2.15185   12.71267
      H1    -0.48278    2.48776   11.83066
       H    -0.05380    8.16919   18.54931
       O    -0.86321    7.75210   18.84555
      H1    -1.13422    7.42680   18.00867
       H    -3.28934    6.04348   16.21612
       O    -3.20888    6.49958   15.37105
      H1    -3.45225    7.42721   15.60337
       H     6.15458    1.16936   15.90913
       O     6.84772    0.72829   16.39450
      H1     6.34367   -0.01630   16.72232
       H     3.41467   12.34361   15.80593
       O     4.03656   12.08383   16.49987
      H1     4.65436   12.83915   16.46728
       H    -1.81244    6.25017   13.91668
       O    -0.88672    5.91574   13.91351
      H1    -0.67467    5.79161   12.91244
       H     1.46268   11.86755   17.29843
       O     0.64354   12.13464   16.84921
      H1     0.58099   13.07118   16.99377
       H     0.70647    6.93597   14.12819
       O     1.42459    7.58491   13.79955
      H1     2.17178    6.97336   13.74280
       H    -3.79740   11.22165   14.86794
       O    -2.81560   11.23063   14.89966
      H1    -2.59250   10.87340   14.06668
       H     7.01155    5.23225   14.27099
       O     6.41556    5.17923   13.50141
      H1     6.88455    5.53018   12.78206
       H    -3.28201    9.75360   15.54866
       O    -3.74642    9.04872   16.10948
      H1    -4.65363    9.40244   16.14136
       H     5.31422   10.50686   11.68141
       O     6.28091   10.53301   11.74208
      H1     6.41658   10.79492   12.69376
       H     4.95108    8.63370   18.54232
       O     4.55834    7.83914   19.03241
      H1     5.33387    7.65113   19.59669
       H     2.47320    3.05195   13.14208
       O     1.73248    3.68570   13.40688
      H1     2.18399    4.21706   14.06691
       H     0.70147    8.12303   12.18511
       O     0.25064    8.05913   11.38947
      H1     0.93670    8.19265   10.67542
       H     7.06396    6.29679   15.97931
       O     7.52930    5.46108   16.13305
      H1     6.90658    5.01688   16.71263
       H     3.93478    2.39413   19.92227
       O     3.44347    2.90656   19.25493
      H1     3.80572    3.80868   19.49765
       H     8.42255   13.99833   14.98381
       O     8.22666   13.94245   15.91977
      H1     8.17439   12.99797   16.08874

