180
frame 1 | Written by MDAnalysis XYZWriter (release 2.4.3)
       H     7.09585   -3.41320   -3.59645
       O     6.76422   -4.31320   -3.63755
      H1     6.07575   -4.24804   -4.36085
       H     7.37252   -8.37701   -1.86517
       O     8.03301   -8.27405   -1.16319
      H1     7.68743   -8.93645   -0.53264
       H    10.76615   -7.32317    1.92857
       O    11.14371   -8.07031    2.47205
      H1    11.84370   -8.25160    1.84257
       H     7.62035  -13.20049    3.67643
       O     8.34113  -12.59312    3.72078
      H1     7.87860  -11.78113    3.53684
       H     6.71139   -4.19229    1.96738
       O     6.10618   -4.12713    1.21106
      H1     6.58576   -3.38063    0.75367
       H     6.52964   -0.47473    1.81546
       O     7.42361   -0.04234    1.79557
      H1     7.77088   -0.65101    2.49985
       H     1.31626   -5.23587   -1.29846
       O     1.05458   -5.46200   -2.25182
      H1     0.20444   -5.92197   -2.04843
       H     9.32363   -4.42913   -5.69678
       O     9.26631   -5.10378   -5.02721
      H1     8.54183   -4.75503   -4.47442
       H     9.01957   -9.42893    2.84305
       O     8.32174   -9.98694    2.47531
      H1     7.64658   -9.29435    2.30644
       H    11.78146  -11.39194    0.30453
       O    12.07212  -10.76247   -0.37987
      H1    11.32187  -10.33665   -0.73671
       H    12.91312   -6.03094   -2.44723
       O    12.67245   -5.11694   -2.48863
      H1    13.52308   -4.65863   -2.45838
       H    12.99360   -8.21684   -1.26842
       O    12.58609   -7.84715   -2.04979
      H1    12.85484   -8.45508   -2.78889
       H    12.42397   -4.56417   -0.35651
       O    12.07978   -4.16849    0.44186
      H1    11.52781   -3.43750    0.19252
       H     1.91987   -5.16386   -4.84360
       O     2.58982   -4.47087   -4.71528
      H1     2.88010   -4.56828   -3.77616
       H     4.99615   -3.48359    2.27062
       O     4.39923   -3.01002    2.89921
      H1     3.83176   -3.78084    3.10798
       H     4.66493   -3.82002   -1.95547
       O     3.83923   -4.27748   -1.75581
      H1     4.11114   -5.21791   -1.65032
       H     8.46310   -4.96306    2.80661
       O     7.75700   -4.91666    3.51077
      H1     8.10967   -5.61477    4.06395
       H     7.11223   -5.67401   -7.36790
       O     7.23265   -4.67751   -7.38003
      H1     8.23245   -4.66456   -7.53531
       H     7.57874   -1.76910   -5.28990
       O     7.39553   -1.88186   -6.23296
      H1     6.87008   -2.76062   -6.14776
       H     6.42204   -2.71324    5.89382
       O     7.28997   -3.14083    5.71339
      H1     6.96125   -3.69594    5.01479
       H    11.08730   -6.86676   -1.23941
       O    10.32501   -6.38146   -0.92743
      H1     9.64293   -7.05262   -1.05249
       H     4.42971   -8.32945   -0.30085
       O     3.95288   -8.99239    0.22031
      H1     3.09857   -8.52849    0.47438
       H     4.38790   -4.58436   -5.56253
       O     5.09283   -3.99206   -5.67148
      H1     5.62166   -4.31598   -6.40776
       H     5.27513   -7.64336   -6.00814
       O     4.47778   -7.56900   -5.33351
      H1     4.58372   -8.42166   -4.83330
       H     7.28477   -6.55376   -0.68473
       O     6.40033   -6.16610   -0.61808
      H1     6.39526   -5.62317    0.18232
       H    14.26464   -8.39280    0.85668
       O    13.32752   -8.33921    0.68322
      H1    13.14990   -9.30296    0.47838
       H     3.13142  -10.49624    1.77999
       O     3.27883  -11.39787    2.12869
      H1     3.40677  -11.88024    1.30318
       H     8.84558   -8.17072    5.65528
       O     9.43032   -8.80389    5.22407
      H1    10.24134   -8.66267    5.73254
       H     1.46552   -8.04449   -3.57504
       O     1.70679   -7.45130   -4.29783
      H1     1.94645   -8.06674   -5.00640
       H     5.56045   -6.81539   -3.87980
       O     5.89329   -7.29560   -3.09338
      H1     6.14186   -6.55273   -2.54844
       H     3.81099   -1.24941   -2.46142
       O     4.16840   -1.15019   -3.35312
      H1     3.28067   -1.10627   -3.79709
       H     5.12652  -12.84173    0.95609
       O     4.36156  -13.03013    0.43007
      H1     4.48004  -12.49261   -0.34367
       H    10.73021   -1.39560    0.92325
       O    10.53133   -1.22516    1.88143
      H1    11.23636   -0.61429    2.10777
       H    10.02856   -4.47241   -1.98786
       O     9.93300   -3.51023   -2.15303
      H1    10.69650   -3.27649   -2.69938
       H    11.17164   -5.70893   -4.78118
       O    12.02293   -6.08786   -5.18266
      H1    12.55343   -6.07178   -4.38647
       H    11.69966   -0.00654   -1.05465
       O    11.47701   -0.90796   -0.71757
      H1    11.83032   -1.40422   -1.45497
       H     7.90863   -1.53869   -0.20395
       O     7.84351   -2.49034   -0.09903
      H1     8.76855   -2.74474   -0.32660
       H     8.37331   -0.91088   -3.40157
       O     8.24728   -1.83273   -3.51821
      H1     8.84430   -2.23560   -2.80473
       H     9.15189   -9.44937   -4.29159
       O     8.65876   -9.43492   -5.15388
      H1     8.47237  -10.32951   -5.39429
       H    10.15753   -8.99417   -5.67881
       O    11.03708   -8.61779   -5.85365
      H1    11.10023   -7.86835   -5.26933
       H     9.38094  -12.58558   -2.85322
       O     8.70477  -12.74307   -2.20011
      H1     8.02038  -12.22186   -2.64896
       H     2.64855   -3.76786   -0.17442
       O     2.13729   -4.31904    0.45736
      H1     1.39583   -3.67163    0.66307
       H     3.33090   -6.71053    3.87600
       O     3.33759   -7.56261    3.45270
      H1     3.37375   -8.35732    4.09887
       H     2.80036   -6.91189   -2.30641
       O     3.50066   -7.00212   -1.70327
      H1     4.25337   -6.95551   -2.31356
       H     9.17112   -9.19952   -1.97313
       O     9.77093   -9.78119   -2.46564
      H1     9.41610  -10.66103   -2.35765
       H     3.29498   -2.06816    1.77792
       O     2.93138   -1.26645    1.35802
      H1     1.99288   -1.57209    1.34037
       H     5.16649   -9.32218   -2.92750
       O     4.78369   -9.91312   -3.59484
      H1     4.23799  -10.59331   -3.18338
       H     7.53377  -10.36656    0.71725
       O     6.75528  -10.21737    0.16966
      H1     6.12015   -9.69616    0.68363
       H     8.42582  -13.09092    0.83283
       O     9.38611  -13.17728    0.63016
      H1     9.29530  -12.96370   -0.30067
       H     2.02870   -4.45974    4.54599
       O     2.71680   -4.83245    3.96514
      H1     2.19703   -5.08697    3.19277
       H    10.51454   -4.83086    1.61630
       O     9.82824   -5.47387    1.62992
      H1     9.89629   -5.91370    0.76847
       H     5.97931  -11.70423   -4.76129
       O     6.85750  -11.98878   -4.61925
      H1     7.23803  -12.02578   -5.50876
       H     8.46850   -2.20917    4.37289
       O     8.44765   -1.37790    3.90582
      H1     9.18725   -1.47241    3.32269
       H     3.95613  -12.75704   -2.70835
       O     3.83049  -12.07081   -2.06271
      H1     2.99371  -12.43447   -1.72592
       H     7.98784    0.27816    0.40420
       O     8.27516    0.46415   -0.54077
      H1     9.15005    0.93135   -0.37264
       H     1.18543   -7.66075   -0.15606
       O     1.71570   -7.36363    0.64362
      H1     2.10300   -6.58361    0.22476
       H     5.03668   -8.24335    2.50002
       O     5.99208   -8.18465    2.58720
      H1     6.10466   -7.36734    3.11395
       H     7.47475   -6.13466    6.47007
       O     7.90970   -6.48506    5.69101
      H1     8.80906   -6.20373    5.84015
       H     7.38208   -8.20213   -6.91090
       O     7.19894   -7.47013   -6.27631
      H1     7.69318   -7.78911   -5.53416
       H    10.42699   -6.23273    3.95195
       O    10.33308   -5.60578    4.66290
      H1    10.57121   -4.74900    4.18680

