180
frame 2 | Written by MDAnalysis XYZWriter (release 2.4.3)
       H    -2.42688  -10.54612  -13.95387
       O    -2.18686   -9.69827  -13.48548
      H1    -2.39138   -9.98226  -12.54966
       H    -5.72743   -8.33685  -10.59257
       O    -5.97165   -8.55445   -9.69815
      H1    -5.43140   -7.89026   -9.15990
       H    -5.60396  -13.46772  -14.79335
       O    -5.87225  -13.66541  -13.86524
      H1    -6.73273  -13.16320  -13.88912
       H    -6.83062   -9.19332   -5.64305
       O    -7.67275   -8.82041   -5.35603
      H1    -7.53869   -7.90156   -5.08264
       H   -10.97849   -5.51383   -4.25694
       O   -11.47311   -4.91277   -4.79805
      H1   -11.05941   -5.07637   -5.67320
       H    -6.25807   -2.21803   -9.98441
       O    -6.92451   -2.28193  -10.71261
      H1    -7.55551   -1.62282  -10.43180
       H   -11.53325   -8.92010  -11.04138
       O   -11.98365   -9.47536  -11.69235
      H1   -12.23111  -10.24748  -11.14858
       H   -10.15594   -7.91258   -9.58480
       O   -11.10800   -7.72160   -9.84417
      H1   -11.15198   -6.79580  -10.14152
       H    -8.21402  -11.64093  -13.63476
       O    -8.03045  -12.36411  -14.29449
      H1    -7.82797  -11.91531  -15.12704
       H   -13.16051   -3.83958   -8.49582
       O   -12.76593   -2.93475   -8.61559
      H1   -12.60180   -2.76808   -7.68059
       H    -9.90007   -9.28512  -15.68756
       O    -9.31641   -8.64952  -15.43676
      H1    -8.77146   -9.01870  -14.73195
       H    -8.76151   -5.69019  -12.23451
       O    -9.26533   -5.96162  -13.00306
      H1    -9.45518   -5.12249  -13.53042
       H   -11.21998   -5.96153  -12.28395
       O   -11.80069   -5.66581  -11.54337
      H1   -12.58504   -6.15104  -11.75042
       H   -12.62069  -12.44833   -9.16465
       O   -13.21394  -13.14437   -9.37319
      H1   -12.55944  -13.90329   -9.22929
       H    -8.95224   -4.44601  -10.57578
       O    -8.02581   -4.66814  -10.71377
      H1    -7.63858   -3.80315  -10.52516
       H    -9.75979   -6.95498   -7.74273
       O    -9.58210   -6.19419   -7.18659
      H1    -9.61109   -6.63204   -6.28321
       H    -6.06352   -5.11105  -13.78605
       O    -5.94806   -4.91002  -12.88190
      H1    -6.87491   -4.55165  -12.75923
       H   -11.00662   -3.26668   -9.66431
       O   -10.54783   -3.35685  -10.57003
      H1   -11.17244   -4.01248  -10.95237
       H    -2.86894   -5.43086  -10.83814
       O    -2.97138   -6.37707  -10.49877
      H1    -3.85755   -6.29813  -10.06978
       H    -9.01572   -9.48050   -6.51541
       O    -9.68799   -9.86173   -7.15233
      H1    -9.80499  -10.74777   -6.68897
       H   -13.79679   -6.94457   -5.49462
       O   -13.35179   -7.75958   -5.73048
      H1   -13.99304   -8.42691   -5.41824
       H    -6.81802  -10.43021  -13.78777
       O    -7.34091   -9.87544  -13.18760
      H1    -6.76774   -9.07913  -13.02276
       H    -6.39208  -14.65135   -8.25764
       O    -7.28190  -14.37375   -8.02358
      H1    -7.23953  -13.38956   -7.81970
       H    -2.34705   -9.73292   -9.96661
       O    -2.80246   -9.23628  -10.73034
      H1    -2.97832   -8.37814  -10.29526
       H    -6.53095  -13.00939   -4.72247
       O    -6.79877  -12.13732   -5.11756
      H1    -6.68176  -11.48201   -4.39618
       H   -10.70663   -3.40898  -14.01965
       O    -9.79160   -3.62701  -14.23965
      H1    -9.58472   -3.39896  -15.14108
       H    -8.41219  -14.93942   -6.61375
       O    -9.33037  -15.08326   -6.23334
      H1    -9.59567  -14.12271   -6.14309
       H    -3.25126   -8.32851  -14.47571
       O    -4.12583   -8.05729  -14.73667
      H1    -4.10923   -8.34591  -15.67118
       H   -10.51655  -12.00562  -12.62940
       O   -10.41826  -11.30673  -13.32964
      H1   -10.74053  -10.49738  -12.83395
       H   -16.12766   -9.18144  -12.75787
       O   -15.35498   -8.74509  -13.05786
      H1   -15.02798   -8.33920  -12.25130
       H   -14.90938  -10.77541   -9.86835
       O   -15.38311  -10.19997   -9.26166
      H1   -14.76300   -9.77718   -8.59964
       H   -12.39760  -10.56888   -7.67794
       O   -11.93486  -10.86324   -8.49116
      H1   -11.12680  -10.38499   -8.30653
       H   -14.94232  -11.67030  -12.29151
       O   -14.30131  -10.98599  -11.96554
      H1   -14.73449  -10.20765  -12.35309
       H    -4.88273  -11.94608  -10.07034
       O    -5.19220  -11.23861   -9.39730
      H1    -5.28825  -10.47684   -9.91714
       H    -6.57341  -11.48375   -8.34090
       O    -7.41521  -11.77541   -7.90958
      H1    -7.38555  -11.49114   -6.98418
       H    -5.22269  -13.45411  -11.32363
       O    -4.29487  -13.15820  -11.00502
      H1    -3.87734  -13.25469  -11.89146
       H   -10.58619  -12.61244   -5.21853
       O   -10.23659  -12.38495   -6.07467
      H1   -10.93900  -12.60155   -6.71459
       H   -12.75031   -9.26437  -13.77668
       O   -12.45229   -9.05069  -14.65700
      H1   -11.51354   -9.24230  -14.60463
       H    -4.84618   -8.71049   -6.95710
       O    -5.20446   -9.59324   -6.88376
      H1    -5.20029   -9.93276   -7.79663
       H    -7.34321  -14.23578  -11.11701
       O    -6.95321  -13.63412  -10.47183
      H1    -7.38002  -13.91957   -9.65323
       H   -11.40496   -7.78892   -5.11666
       O   -10.48573   -7.78240   -4.79868
      H1   -10.13285   -8.52643   -5.26989
       H    -7.55769   -5.18920   -8.97550
       O    -7.31697   -5.17154   -8.06206
      H1    -8.16346   -5.23986   -7.60408
       H    -8.13614  -10.71194  -11.46520
       O    -8.39458  -11.25789  -10.68194
      H1    -7.65367  -11.87283  -10.64207
       H    -5.59572   -5.98791   -8.01767
       O    -4.82261   -6.33269   -8.44159
      H1    -4.13747   -6.55975   -7.73937
       H    -8.51753   -9.44180   -9.68959
       O    -8.50938   -8.47110   -9.77658
      H1    -7.53324   -8.32329   -9.77286
       H    -9.41369  -12.67851  -11.05164
       O   -10.00387  -13.37056  -11.36350
      H1    -9.35259  -13.96478  -11.72121
       H    -2.42072   -6.53112   -6.58555
       O    -3.05263   -7.31063   -6.60069
      H1    -3.13805   -7.26923   -5.62728
       H    -4.69419  -12.24292   -5.41207
       O    -3.94114  -11.66865   -5.66975
      H1    -4.30213  -10.89819   -6.16702
       H   -12.98673   -4.06710  -12.85176
       O   -12.52082   -3.56569  -13.51536
      H1   -12.49979   -4.22906  -14.23463
       H   -13.13236   -8.07476   -7.20067
       O   -13.31315   -8.28765   -8.13824
      H1   -12.38913   -8.22619   -8.49963
       H    -4.97660   -7.83997  -13.17519
       O    -5.67532   -7.67946  -12.50722
      H1    -5.72535   -6.70910  -12.45726
       H   -14.20532  -11.97245   -6.54104
       O   -13.81949  -11.10766   -6.31606
      H1   -14.40713  -10.79699   -5.66951
       H    -7.25365   -3.14350   -4.29354
       O    -7.64310   -3.68015   -4.98156
      H1    -8.45948   -3.16064   -5.13263
       H    -8.89156   -5.96061   -3.44934
       O    -8.13705   -6.14649   -4.05032
      H1    -8.06493   -5.20227   -4.36927
       H    -3.90146   -2.69477  -13.38703
       O    -4.79080   -2.50715  -12.97570
      H1    -5.13994   -3.40193  -12.71270
       H   -14.16693   -5.56084   -9.76094
       O   -13.58177   -5.45737   -8.97303
      H1   -13.34294   -6.39639   -8.70731
       H   -15.67314   -6.56255  -11.00667
       O   -14.88159   -6.09045  -11.32683
      H1   -15.26575   -5.42774  -11.87742
       H    -9.79460  -14.49784   -8.19573
       O   -10.46919  -14.41825   -8.86583
      H1   -10.00550  -14.01165   -9.61180
       H    -5.07313   -2.48766   -7.66373
       O    -5.60156   -2.30624   -6.85122
      H1    -6.28785   -2.96241   -6.88140
       H    -7.34810   -6.77088  -14.53370
       O    -6.73689   -6.12789  -14.99664
      H1    -6.05774   -6.72253  -15.32812

