180
frame 10 | Written by MDAnalysis XYZWriter (release 2.4.3)
       H     3.33080    8.62985   14.49130
       O     2.37379    8.48846   14.53901
      H1     2.23466    7.51895   14.27391
       H     0.68229   15.88372   17.47037
       O     1.08898   16.01782   18.32750
      H1     0.45091   15.72796   18.97496
       H    -4.74422   17.31886   19.06453
       O    -5.76152   17.23655   19.05404
      H1    -6.10745   18.13517   18.71707
       H   -10.04392   16.88930   17.94782
       O   -10.61791   17.55969   18.20960
      H1   -11.34562   17.51015   17.53646
       H    -0.97698   10.11405   11.87289
       O    -0.46354   10.52932   11.16929
      H1     0.06886    9.80599   10.71114
       H   -10.18646   15.44759   14.07487
       O   -10.08336   16.38663   14.39271
      H1   -10.46743   16.97567   13.70163
       H    -4.02865   12.10535   12.33114
       O    -3.22167   12.02860   12.92057
      H1    -2.64658   12.69947   12.48545
       H     2.63515   10.38052   13.64512
       O     2.92025   11.32383   13.53388
      H1     2.39362   11.67814   14.27778
       H     4.30578   12.97832   17.06196
       O     5.07815   12.39728   17.21882
      H1     5.36614   12.33169   16.34258
       H    -1.67730    9.68134   18.63536
       O    -2.27984   10.42598   18.94399
      H1    -2.89962   10.58925   18.25225
       H    -3.63057   17.78678   10.75228
       O    -3.75126   17.74377   11.69629
      H1    -3.64224   16.74965   11.90087
       H    -1.23049   10.79948    8.67075
       O    -2.08867   11.13542    9.06258
      H1    -1.80265   11.11828    9.97454
       H    -4.80369   15.15438   12.07421
       O    -3.97513   15.18723   12.64929
      H1    -4.15791   14.86535   13.54372
       H    -0.21586   16.72152   15.31280
       O    -0.07611   15.93364   15.83473
      H1    -0.84286   15.35916   15.70753
       H    -1.01622   12.16551   19.00228
       O    -0.16063   12.57633   18.78819
      H1    -0.30896   12.85967   17.87305
       H    -9.72808   13.02029   13.52124
       O    -9.82827   13.56957   14.27678
      H1    -9.51189   13.04713   15.00749
       H    -6.35075   10.38676   15.84379
       O    -6.04903    9.64215   16.36418
      H1    -6.13342    8.87037   15.76371
       H     1.71713   15.39658   14.78048
       O     2.47206   15.53642   14.16298
      H1     2.11715   16.24402   13.65522
       H    -9.47495   10.72517   16.35561
       O    -9.49668   10.46532   15.43842
      H1    -9.08748    9.59826   15.55673
       H    -7.51655    9.91561   19.41179
       O    -7.02343    9.17265   19.02467
      H1    -6.79213    9.54260   18.10626
       H    -8.59840   19.28887   15.05885
       O    -8.22933   18.44626   15.35774
      H1    -7.93329   18.56895   16.26653
       H    -0.84682    8.30678   15.68995
       O    -0.27591    9.09490   15.82101
      H1     0.13790    9.04503   14.90940
       H    -6.45679   15.20806   10.82070
       O    -5.54757   15.04473   10.61157
      H1    -5.46912   15.54520    9.73092
       H    -6.79424   15.74736   18.27340
       O    -7.77344   15.57049   18.18108
      H1    -7.63790   14.97090   17.39182
       H    -6.29345   14.33960   15.91802
       O    -7.25068   14.15094   15.84072
      H1    -7.54999   14.61949   15.03997
       H     2.08079   12.75121   16.62494
       O     1.70602   12.04082   16.09041
      H1     1.48980   11.36338   16.76392
       H    -2.84278   14.30940   15.94259
       O    -1.94359   14.01788   16.01068
      H1    -1.86614   13.15192   15.60830
       H     1.23286   18.81407   12.89481
       O     1.13274   17.87285   13.12159
      H1     0.26727   17.88625   13.55878
       H    -2.27436    8.59739   12.28272
       O    -1.44594    8.61312   12.79953
      H1    -0.84412    8.27092   12.17069
       H    -8.31712   10.76206   12.18525
       O    -8.25244   11.72462   12.34456
      H1    -8.03860   12.15045   11.52838
       H    -4.70268   14.28872   16.74221
       O    -4.51696   14.92176   16.03393
      H1    -4.31826   15.75391   16.46288
       H     2.01687   15.44614   10.31813
       O     2.30435   15.99758    9.61469
      H1     1.52831   16.17870    9.18619
       H    -3.99197    9.70278   11.18059
       O    -3.81139    8.78641   10.88935
      H1    -3.79033    8.78700    9.96054
       H     1.80736   17.59875   18.52203
       O     2.52534   18.26468   18.62593
      H1     2.62095   18.43013   17.66825
       H    -4.18933   12.66420   10.00802
       O    -4.91001   12.20301   10.45375
      H1    -5.32685   13.00541   10.83119
       H    -6.59512   12.53334   15.05166
       O    -6.39238   11.87505   14.39202
      H1    -6.95713   12.11403   13.65552
       H    -8.04556   15.20423   12.41033
       O    -8.10792   14.83478   11.52177
      H1    -8.87068   15.30552   11.20788
       H    -1.91639   12.93586    9.37742
       O    -2.49470   13.70338    9.62667
      H1    -1.99250   14.04600   10.46456
       H    -4.07903   17.23779    8.55131
       O    -3.44417   17.80564    8.98016
      H1    -3.78505   18.66003    9.17155
       H     2.84447   14.62806   12.84674
       O     3.11500   14.18341   11.96366
      H1     3.52022   14.96554   11.46490
       H    -4.15034    7.15972   15.70569
       O    -5.03966    6.77205   15.38742
      H1    -4.74104    6.59084   14.45818
       H     1.69190   13.31887   11.40683
       O     0.88675   13.02488   10.92035
      H1     0.70212   12.12092   11.20863
       H    -4.14847   13.93816   19.69048
       O    -3.84923   14.29806   18.85368
      H1    -2.91450   14.12968   18.89501
       H     4.84101   16.12212   15.43132
       O     5.21802   15.22892   15.41317
      H1     6.17479   15.25060   15.59751
       H    -1.61223   14.55630   13.15666
       O    -1.43208   14.12427   12.30986
      H1    -0.43530   13.88802   12.27637
       H     2.98831   18.43056   15.54170
       O     2.37600   18.97188   16.03573
      H1     2.85143   19.84106   16.02349
       H     0.25596    8.60405   19.00429
       O    -0.51904    8.09306   18.66451
      H1    -0.23069    8.09881   17.73492
       H    -1.03447   16.00474    9.36879
       O    -0.52638   16.74581    8.94664
      H1    -0.33448   16.32310    8.04187
       H    -6.31447   18.15576   15.02409
       O    -5.49374   18.18393   14.49388
      H1    -4.80209   17.87461   15.15659
       H    -2.55232    6.65245   16.82049
       O    -2.34196    7.35352   16.19872
      H1    -2.72071    8.20285   16.53458
       H    -6.73373   16.81385   13.87986
       O    -7.45363   16.18986   13.62296
      H1    -8.25488   16.72965   13.91922
       H     4.35936   12.32623   13.91334
       O     5.29881   12.48536   14.17249
      H1     5.19797   13.38764   14.41211
       H     2.35066   13.19291   18.88710
       O     2.64067   13.65035   18.08352
      H1     2.04600   14.40672   18.11558
       H    -9.75297   11.62204   18.78432
       O    -9.10609   10.93442   18.49755
      H1    -9.74912   10.18540   18.55658
       H    -0.63180   18.99008   15.39935
       O    -0.94287   18.43098   14.64019
      H1    -1.35524   19.22688   14.16953
       H    -2.00111   11.20629   14.18211
       O    -1.79905   11.37468   15.10254
      H1    -1.29076   10.58733   15.23647
       H     2.65504    9.76746   18.25945
       O     2.79390   10.61198   18.70672
      H1     3.54030   10.91410   18.25529
       H    -3.13660   10.54098   15.91187
       O    -3.42146    9.85319   16.51383
      H1    -4.35309    9.77900   16.36625
       H    -7.01444   17.17629   12.01292
       O    -6.55903   17.75717   11.38864
      H1    -5.60286   17.74929   11.68429
       H    -2.66835   17.54955   17.03278
       O    -3.32490   17.63601   16.33346
      H1    -2.76012   18.03364   15.63101

