180
frame 0 | Written by MDAnalysis XYZWriter (release 2.4.3)
       H   -17.04992   -1.27133    5.45883
       O   -17.21958   -2.21017    5.49047
      H1   -17.29407   -2.26359    6.46011
       H   -17.82648   -6.33769   -0.50741
       O   -17.76725   -5.64787    0.14669
      H1   -17.35155   -6.13966    0.90143
       H   -16.19943  -10.46046   12.56190
       O   -15.55001  -10.32209   13.25686
      H1   -15.24212   -9.43037   13.03277
       H   -17.02768   -0.74389   12.14561
       O   -16.42894   -0.25992   12.74360
      H1   -17.02731   -0.23369   13.53337
       H   -13.70413    0.69916    3.17817
       O   -13.51641    1.41944    3.79138
      H1   -14.07000    2.16373    3.63567
       H   -10.07299   -1.39827    7.44305
       O   -10.62843   -1.62341    6.73466
      H1   -10.01021   -2.01288    6.12801
       H   -18.50599   -1.83881   14.12731
       O   -18.48563   -2.15801   13.22519
      H1   -18.17655   -3.06308   13.42608
       H   -13.75119   -0.90480   10.39922
       O   -13.35532   -1.49377    9.73087
      H1   -14.16608   -1.91918    9.42921
       H   -13.49489   -4.55323    0.09480
       O   -12.70102   -5.10970   -0.12558
      H1   -12.40398   -5.38878    0.71054
       H   -13.32990   -7.51510    4.50221
       O   -13.34303   -6.77398    3.87617
      H1   -13.88210   -6.11123    4.33770
       H   -18.31814   -2.50247    4.06464
       O   -18.69789   -2.95930    3.31500
      H1   -19.29821   -2.36831    2.88646
       H   -11.23012   -5.94148    6.54620
       O   -10.29432   -6.03284    6.35209
      H1   -10.09051   -5.15954    6.06066
       H   -18.15689  -13.93080    6.23999
       O   -18.85961  -13.30745    5.98143
      H1   -18.57123  -12.53246    6.48254
       H    -8.64132   -8.00891    4.69160
       O    -9.33151   -7.46701    4.26732
      H1    -9.74097   -7.10417    5.12069
       H   -19.35621   -9.93938    6.15535
       O   -18.59057   -9.86725    6.73171
      H1   -17.87986   -9.50277    6.20161
       H   -19.30478   -4.12041    4.58589
       O   -19.20044   -4.67434    5.41312
      H1   -19.29237   -4.01080    6.14392
       H   -18.14711   -8.51616    3.58885
       O   -18.25928   -7.91025    4.36923
      H1   -19.19564   -7.64516    4.41209
       H   -19.48909   -6.99468   12.02370
       O   -18.56183   -7.21818   12.19901
      H1   -18.64439   -7.97353   12.84250
       H   -17.54784  -11.03811    9.84027
       O   -17.34476  -11.45250    9.00643
      H1   -17.56116  -10.79436    8.36308
       H   -16.31527   -7.37801   10.65673
       O   -15.63091   -7.85899   10.06902
      H1   -14.96632   -7.19365   10.06813
       H   -17.26023   -7.00587    3.15934
       O   -16.77184   -6.64090    2.42739
      H1   -15.90589   -7.02222    2.61137
       H   -17.64385    0.09011    2.28969
       O   -16.81738    0.50238    2.09943
      H1   -16.23075   -0.26809    1.96737
       H   -18.63628  -10.37214   11.73648
       O   -17.78431  -10.85577   11.74382
      H1   -18.09648  -11.62771   12.21267
       H   -16.12795   -4.85541    0.22245
       O   -15.42126   -4.22087    0.07573
      H1   -15.73033   -3.45043    0.53737
       H   -18.18574   -5.70727   13.65618
       O   -18.36590   -4.86504   14.14653
      H1   -17.77548   -4.75171   14.81651
       H   -12.74530    0.72196    5.45446
       O   -12.24005    0.81447    6.29284
      H1   -11.56048    0.09197    6.14198
       H   -15.42430  -11.71173    9.15635
       O   -14.49785  -11.85520    8.83153
      H1   -14.44150  -12.76845    9.17218
       H   -15.75562   -5.17525    3.74497
       O   -15.16068   -4.79683    4.43364
      H1   -15.71161   -4.90529    5.18481
       H   -14.03140   -7.65355   12.24636
       O   -13.86300   -7.73700   13.19152
      H1   -12.87104   -7.87025   13.18463
       H   -14.34277   -1.34080    1.15880
       O   -15.16342   -1.60618    1.65173
      H1   -14.62009   -1.68028    2.47723
       H   -15.77365    2.25293    8.44135
       O   -16.23752    1.51094    8.06423
      H1   -16.71218    1.96601    7.31223
       H   -17.52864  -10.30022    2.11918
       O   -16.79566  -10.37224    1.52235
      H1   -16.77169  -11.32934    1.29515
       H   -13.60288  -10.05787    1.29477
       O   -14.03189   -9.69405    2.08291
      H1   -15.02804   -9.67205    1.81814
       H   -13.76282   -6.88855    6.79859
       O   -13.54267   -6.53393    7.68936
      H1   -13.29096   -5.62176    7.46952
       H   -19.14621   -4.51931    2.23988
       O   -19.53871   -5.37141    1.96836
      H1   -18.89636   -5.73694    1.27593
       H   -14.02841   -4.85101   12.48454
       O   -14.48838   -4.80690   11.62461
      H1   -13.73557   -4.69372   11.04915
       H   -18.67553    0.77261    5.12153
       O   -18.60965    0.85209    4.17441
      H1   -17.63697    0.82321    4.03854
       H   -15.51938  -14.12607    6.91157
       O   -15.88765  -13.53596    6.24347
      H1   -15.62497  -12.63762    6.50273
       H   -12.34759   -3.37417    6.60704
       O   -12.76966   -4.17214    6.29953
      H1   -13.50836   -3.90510    5.66226
       H   -10.42129   -8.84930    8.04366
       O    -9.76525   -8.22201    8.37185
      H1   -10.31657   -7.49212    8.53729
       H   -12.13338   -1.98762    3.01685
       O   -11.75817   -1.23931    2.60826
      H1   -11.79335   -1.57417    1.68572
       H    -9.05918   -3.09531    4.37547
       O    -9.41456   -3.63773    5.10965
      H1    -8.58527   -4.16305    5.24946
       H   -10.90628   -7.16661    1.38116
       O   -11.24134   -6.30592    1.69435
      H1   -11.92647   -6.56810    2.30309
       H   -16.27678  -11.32857    4.28925
       O   -15.59008  -10.87613    4.79694
      H1   -14.78008  -11.20427    4.38111
       H   -16.40996   -5.06557   11.58906
       O   -17.19369   -5.27436   11.04108
      H1   -17.61101   -5.93769   11.62003
       H   -18.29246    0.85190   10.07344
       O   -18.19848   -0.06358    9.82334
      H1   -17.44145   -0.07377    9.13161
       H   -12.44159   -2.67319   10.63961
       O   -12.09334   -3.32604   11.33194
      H1   -11.14009   -3.35688   11.20064
       H   -15.87319   -3.35284    8.01308
       O   -15.92031   -2.38238    8.16977
      H1   -15.45585   -2.00786    7.43179
       H   -12.99656   -0.08936   11.91740
       O   -13.22954    0.68897   11.45841
      H1   -14.01180    1.03095   11.91889
       H   -13.77107   -8.99457    6.53972
       O   -14.19132   -8.52423    5.82331
      H1   -14.79541   -9.14655    5.39669
       H   -14.12422   -2.09208    4.88570
       O   -13.85515   -2.37549    4.04501
      H1   -14.50187   -3.14862    3.96739
       H   -20.13411   -3.88940    7.76593
       O   -19.39940   -3.26458    7.89724
      H1   -18.74415   -3.73224    8.34873
       H   -11.90388  -10.78742    8.50227
       O   -12.12340   -9.82524    8.44135
      H1   -12.94356   -9.87845    8.86588
       H   -17.61870   -6.06333    9.25266
       O   -17.45023   -6.63624    8.54417
      H1   -16.69868   -7.20060    8.84538
       H   -14.72536   -0.54289    6.14160
       O   -14.20533   -1.28538    6.43529
      H1   -13.52555   -0.85171    6.94590
       H   -16.93379   -5.74431    7.23036
       O   -16.76494   -4.92338    6.73875
      H1   -17.55042   -4.76764    6.21914
       H   -13.17506   -2.11101   12.39890
       O   -13.60059   -1.56741   13.16470
      H1   -14.51028   -1.52195   12.85825
       H   -15.82208   -6.35077   15.60680
       O   -16.17281   -6.93877   14.92913
      H1   -15.50023   -6.81510   14.24066
       H   -18.75078   -7.69474    9.14289
       O   -19.41574   -8.37684    9.24690
      H1   -19.43631   -8.64173    8.33712
       H   -14.88660    1.17184    4.86596
       O   -15.63647    0.70550    5.31523
      H1   -15.58018    0.88722    6.25808

