180
frame 0 | Written by MDAnalysis XYZWriter (release 2.4.3)
       H    -5.51197   -8.80408    5.63032
       O    -6.10040   -8.15842    5.24421
      H1    -6.87330   -8.66249    5.05066
       H    -1.61240  -10.97287   -0.76307
       O    -1.57299  -11.59261   -1.46302
      H1    -1.59996  -12.44265   -1.11120
       H     0.65792   -7.42675    1.46991
       O     0.08791   -7.65224    0.69343
      H1     0.50160   -7.32846   -0.08649
       H    -4.73799   -7.50878   -2.86660
       O    -4.60620   -7.99083   -2.02873
      H1    -4.60138   -7.25793   -1.35677
       H    -7.45684   -7.81567    2.44221
       O    -8.03462   -7.11317    2.06419
      H1    -7.99618   -7.35725    1.09573
       H    -0.52047   -5.90664   -1.36903
       O     0.34101   -5.99340   -1.76763
      H1     0.26766   -6.67276   -2.48800
       H    -0.19705  -13.56574    5.44148
       O    -0.22876  -12.66340    5.66544
      H1     0.59293  -12.53199    6.12539
       H    -0.80388   -6.95582    5.57318
       O    -0.45933   -7.88447    5.63867
      H1    -1.07527   -8.27264    6.30322
       H     3.55159  -14.69156    0.97038
       O     3.67418  -15.07560    1.82992
      H1     4.17002  -15.85870    1.69345
       H     1.46316   -6.42828    3.11763
       O     1.27667   -7.39852    3.02718
      H1     0.98910   -7.78906    3.83765
       H    -1.92487   -5.18599    0.32888
       O    -1.99331   -5.09782   -0.63534
      H1    -1.74215   -4.19424   -0.81058
       H    -6.74579  -13.62325    6.46300
       O    -6.75737  -12.75679    6.04413
      H1    -7.67470  -12.42927    6.08814
       H    -1.05036   -5.61625    3.73558
       O    -0.69195   -5.42704    4.67281
      H1    -1.49765   -5.16067    5.13364
       H     3.77589  -10.34556    2.13672
       O     4.77986  -10.30379    2.08011
      H1     4.91302   -9.33718    2.10310
       H     1.34360  -10.28136    2.14628
       O     1.39164  -10.10920    1.19692
      H1     1.00520   -9.24388    1.18275
       H    -0.58164  -12.12516   -3.36268
       O     0.37056  -11.97288   -3.45829
      H1     0.60789  -11.47221   -2.67940
       H     4.80315  -14.00415   -1.07721
       O     3.94396  -13.79455   -0.68191
      H1     3.82144  -12.86653   -0.89164
       H    -5.24659  -10.19080    7.17995
       O    -4.98513  -10.47687    6.28647
      H1    -5.47140  -11.34726    6.26180
       H    -0.44143  -14.87707    3.48054
       O     0.05245  -15.21745    4.23590
      H1     0.97701  -14.93972    4.00631
       H    -3.91283   -6.72848    7.48408
       O    -3.75443   -7.35148    8.15057
      H1    -3.28274   -8.05764    7.76543
       H    -5.58871   -6.13149    5.28454
       O    -5.07481   -5.30766    5.23633
      H1    -5.05235   -4.92560    4.36833
       H    -3.31091  -17.31839    3.94043
       O    -2.89986  -17.13341    4.75187
      H1    -2.21632  -17.84867    4.69948
       H    -5.52037  -11.68781    0.92076
       O    -5.93558  -11.40426    1.72796
      H1    -5.77594  -12.13234    2.39042
       H    -1.69209   -8.52888   -1.38762
       O    -1.89453   -8.94823   -0.55528
      H1    -1.22937   -8.46600   -0.00038
       H    -8.65744  -10.27107    4.23577
       O    -8.25058   -9.63215    4.85058
      H1    -8.86171   -8.92134    5.03193
       H    -0.59478  -11.85915    8.03858
       O    -1.40281  -12.00882    8.59362
      H1    -1.95200  -12.63822    8.14829
       H    -4.92004  -13.96211   -0.59426
       O    -4.61885  -13.51549   -1.37134
      H1    -3.69594  -13.67564   -1.33787
       H    -3.29071  -10.23072    6.66393
       O    -2.39556   -9.97522    6.94915
      H1    -2.25943  -10.55905    7.71132
       H     4.78818  -11.60605    5.09500
       O     4.20670  -12.19054    4.65408
      H1     4.58762  -12.46003    3.80918
       H    -2.93056  -15.24257    4.72008
       O    -3.30396  -14.35493    4.73730
      H1    -4.16311  -14.46140    4.36226
       H    -6.27314  -13.22870    4.33980
       O    -5.91143  -13.53762    3.47178
      H1    -6.56313  -14.12585    3.14371
       H    -8.64172   -8.01392   -1.28489
       O    -8.09494   -7.42228   -0.70140
      H1    -7.21507   -7.60412   -1.01240
       H    -1.75752  -14.33300   -2.37364
       O    -1.47185  -14.28540   -1.45107
      H1    -0.51468  -14.47388   -1.53228
       H    -1.48845  -10.53628    2.99347
       O    -2.06066  -10.88022    2.24687
      H1    -2.56586  -10.11078    1.98353
       H     3.36043   -7.96898    5.67528
       O     3.69782   -8.54357    4.93584
      H1     2.95490   -9.11586    4.67113
       H    -1.92791  -15.85681   -0.43891
       O    -2.22648  -16.11789    0.47863
      H1    -2.12375  -15.33216    1.02956
       H    -0.12865  -17.31913    6.59037
       O    -0.06823  -17.51728    5.60120
      H1    -0.03838  -16.63717    5.23317
       H    -3.38016  -17.04107    1.57454
       O    -3.95427  -17.39672    2.29847
      H1    -4.86596  -17.01463    2.27812
       H    -8.36778  -11.63167   -2.19891
       O    -7.81789  -10.97238   -2.66281
      H1    -7.07901  -10.86190   -2.08273
       H    -4.76639   -4.28076    2.31941
       O    -3.95391   -4.30035    2.86249
      H1    -3.54627   -3.40771    2.83415
       H    -4.33309  -10.33414   -1.36988
       O    -4.86009  -10.84759   -0.73585
      H1    -4.71056  -11.75731   -1.04272
       H    -0.53735  -11.03014    5.01025
       O    -0.33497  -10.32489    4.37320
      H1    -0.52294   -9.45886    4.69528
       H     1.79883  -16.05071   -1.64620
       O     1.11980  -15.68013   -1.11851
      H1     1.34917  -14.95318   -0.56461
       H     2.28752  -11.74528    7.53985
       O     1.36708  -11.61227    7.71685
      H1     1.26196  -10.68208    7.95593
       H    -7.06297  -15.36290   -0.67650
       O    -6.77575  -14.89034    0.12162
      H1    -7.46926  -14.25217    0.23567
       H     1.39104  -10.64245    4.00661
       O     2.30774  -10.65506    3.83178
      H1     2.86450  -11.24706    4.34743
       H    -4.21186   -8.53092    1.70328
       O    -3.34406   -8.14096    1.64851
      H1    -3.05629   -8.38329    0.75968
       H    -3.92021   -5.38478   -0.23044
       O    -4.84156   -5.65559   -0.31308
      H1    -5.15893   -5.34054   -1.12169
       H    -7.77603  -12.27474    0.98333
       O    -8.41518  -13.00070    1.04387
      H1    -9.11651  -12.80611    0.42337
       H     0.04161  -13.56039    1.08615
       O     0.92599  -13.39723    0.91506
      H1     1.03014  -12.43432    0.82365
       H     3.16403  -13.61915    4.31358
       O     2.80101  -14.50696    4.15683
      H1     3.02899  -14.71165    3.18851
       H     1.32535   -7.33792    6.89080
       O     2.24832   -7.45961    6.96968
      H1     2.48307   -7.36759    7.93461
       H    -2.27435  -13.27495    1.98328
       O    -1.78922  -13.96838    2.42929
      H1    -2.15182  -13.91273    3.34846
       H    -3.69686  -14.54815    8.39244
       O    -4.33504  -14.24717    7.73614
      H1    -4.02419  -14.60944    6.88608
       H     3.98732  -11.34817   -2.95743
       O     3.67967  -11.42099   -2.04900
      H1     3.17271  -10.60175   -1.88733
       H    -5.74935   -9.71788    2.32985
       O    -5.92576   -8.77388    2.48648
      H1    -5.67670   -8.62661    3.42169
       H    -2.62128   -5.18401    2.64171
       O    -1.88244   -5.72074    2.18058
      H1    -2.37600   -6.58619    2.10879
       H    -0.04721   -9.04593   -2.55599
       O    -0.63319   -8.30073   -2.95139
      H1    -0.78403   -8.55741   -3.85583
       H    -3.42413   -9.28925   -2.66139
       O    -3.24067  -10.13130   -3.04080
      H1    -2.44513  -10.43883   -2.59349
       H     1.19723  -10.08529   -0.71992
       O     1.34700   -9.87030   -1.69349
      H1     1.98838   -9.16894   -1.72109

