180
frame 7 | Written by MDAnalysis XYZWriter (release 2.4.3)
       H    13.56145  -18.54668   -3.95981
       O    13.16136  -18.14389   -4.73876
      H1    13.17710  -18.83141   -5.42765
       H    15.47464  -16.17233    3.91666
       O    15.78319  -16.95779    3.45928
      H1    14.97956  -17.27727    3.10081
       H     8.06135  -15.86929    4.73687
       O     8.55805  -15.26875    5.32623
      H1     9.42553  -14.98086    4.87499
       H    11.67736  -13.84029   -4.18580
       O    10.73325  -13.75841   -4.34225
      H1    10.71619  -12.90807   -4.87813
       H    13.08219  -14.53122   -1.40753
       O    12.79241  -15.34110   -1.01421
      H1    12.12333  -15.67718   -1.65868
       H     4.07356  -16.90870   -2.31380
       O     4.80542  -17.33332   -1.78021
      H1     4.35720  -17.31859   -0.94022
       H     6.37907  -17.46177    6.11503
       O     6.37739  -17.41394    7.14901
      H1     6.97191  -18.16303    7.29923
       H     3.40627  -13.86828   -0.81889
       O     3.32122  -13.52298   -1.68377
      H1     4.27033  -13.28783   -1.86556
       H     6.77619  -13.96861    2.23308
       O     7.41709  -13.43083    1.68790
      H1     7.94777  -12.85015    2.28311
       H    10.75021  -17.53940    6.93010
       O     9.86231  -17.24973    7.20127
      H1     9.57640  -16.68072    6.49706
       H    10.79712  -13.53969    1.01902
       O    11.28498  -13.19657    1.76015
      H1    11.10649  -12.25622    1.62745
       H    10.53115  -16.35998   -3.49470
       O    11.31341  -16.60599   -2.88038
      H1    11.89841  -17.10768   -3.44069
       H     8.98807  -10.99597    3.92588
       O     8.29841  -11.40987    3.36759
      H1     7.51735  -10.82031    3.63076
       H    13.00321  -10.70677   -1.56301
       O    12.22983  -10.87711   -2.16299
      H1    11.49151  -10.89113   -1.46727
       H     2.93264  -19.62387   -4.10954
       O     2.06051  -19.28729   -4.34816
      H1     2.01184  -19.24400   -5.33237
       H     8.53511  -15.80497   -4.10362
       O     9.35964  -16.09223   -4.46619
      H1     9.67191  -15.23285   -4.84234
       H     0.81149  -12.10884    0.14287
       O     0.07293  -12.66841   -0.09109
      H1    -0.34136  -12.72767    0.75673
       H     8.08626  -16.43278   -7.00923
       O     8.67983  -17.17488   -6.93139
      H1     9.05418  -16.89193   -6.04984
       H     2.56123  -18.94537    5.53923
       O     3.47917  -18.91048    5.79996
      H1     3.98637  -19.40416    5.12613
       H    10.33713  -17.43141    0.25950
       O    10.77496  -16.94351    1.01435
      H1    10.46424  -15.99477    0.87790
       H     6.82619  -15.71053   -2.63392
       O     7.04521  -15.12104   -3.39328
      H1     6.42646  -15.40193   -4.13800
       H     2.53003  -17.46541   -4.12975
       O     3.27971  -16.83440   -4.03033
      H1     3.10152  -16.06051   -4.60571
       H     3.27430  -13.41068    1.58680
       O     3.38932  -14.27725    1.09693
      H1     2.47957  -14.65030    0.97288
       H     8.88037  -16.89360    1.51931
       O     8.07696  -17.30564    1.86786
      H1     7.49153  -17.07810    1.14475
       H     3.14153  -18.97883    7.69641
       O     2.98791  -18.79832    8.66057
      H1     3.89206  -18.75571    9.04528
       H    12.82526  -14.77945    1.03891
       O    13.35719  -15.18451    1.68808
      H1    13.10456  -16.04276    1.42170
       H     7.94306  -17.04847   -1.26947
       O     7.16518  -16.47395   -0.93677
      H1     6.42490  -16.95451   -1.34624
       H     2.93926  -16.70082    5.25534
       O     2.56771  -16.29798    4.48505
      H1     2.66596  -15.35724    4.65753
       H     5.84351  -11.43635   -0.53690
       O     5.41509  -12.31344   -0.44463
      H1     6.12159  -12.76007    0.06501
       H    13.89290  -13.66069   -4.38819
       O    13.22207  -13.64807   -3.64834
      H1    13.25521  -12.83453   -3.12276
       H    10.34185   -9.75775    2.11009
       O    11.13667  -10.09051    1.68966
      H1    10.68028  -10.50278    0.95642
       H     7.75027  -13.60423    5.68995
       O     7.22565  -12.82246    5.47057
      H1     7.64297  -12.37023    4.73957
       H     4.27993  -15.48433    1.96369
       O     4.70436  -16.06671    2.60117
      H1     4.06906  -16.19025    3.30938
       H     6.73085  -18.07042   -6.83975
       O     5.81272  -18.07224   -6.62060
      H1     5.40919  -17.81345   -7.45085
       H     0.93902  -13.70312    4.78626
       O     1.71207  -13.15014    4.89995
      H1     1.26016  -12.27489    4.78989
       H     5.62161   -9.46715    3.64500
       O     6.43221   -9.50122    4.17015
      H1     6.79262   -8.61201    3.92284
       H    13.62082  -14.22120    4.65717
       O    14.34245  -14.73259    4.21836
      H1    13.99435  -14.81733    3.27566
       H    13.40082  -19.23214    4.55772
       O    13.53062  -18.27052    4.32465
      H1    14.31640  -18.10066    4.92142
       H     9.47565  -12.52491    6.40356
       O    10.05886  -12.00909    6.92864
      H1    10.22561  -11.29917    6.25626
       H    15.36155  -19.28349   -2.67876
       O    14.78534  -18.49681   -2.71371
      H1    14.75402  -18.23627   -1.74750
       H    15.97753  -15.10267   -1.21986
       O    15.57333  -15.38051   -0.40294
      H1    14.60015  -15.49659   -0.73352
       H     5.69081  -13.80355    4.32266
       O     5.23344  -13.49876    3.47662
      H1     4.84235  -14.34817    3.21275
       H    12.70461  -17.35370    7.33202
       O    12.37327  -18.27085    7.42917
      H1    12.09616  -18.43391    8.32676
       H     9.52863  -13.30744   -2.85409
       O     9.12572  -13.01838   -2.04539
      H1     8.18271  -13.17702   -2.22717
       H    11.18322  -15.45149    3.86825
       O    11.25509  -14.59376    4.25734
      H1    11.61667  -14.11661    3.51151
       H     6.12680  -16.82383    3.86367
       O     6.75883  -17.18602    4.46840
      H1     7.31201  -17.62808    3.88163
       H    10.94888  -17.48868    2.83381
       O    10.83287  -17.49312    3.79795
      H1    11.76256  -17.54373    4.13815
       H     9.47760  -10.21208   -0.95481
       O     9.94013  -10.93110   -0.48491
      H1     9.98713  -11.58233   -1.20001
       H    10.59169  -19.55882    5.77167
       O    10.03263  -19.82339    6.48904
      H1     9.57282  -19.00478    6.79843
       H     5.56049   -9.16278   -0.27530
       O     5.93379   -9.66071   -0.97651
      H1     5.28895   -9.42805   -1.67228
       H     8.64228  -14.21102    0.64634
       O     9.49934  -14.56018    0.31401
      H1     9.38274  -14.28744   -0.62348
       H     5.91103  -13.32528   -4.08545
       O     5.80392  -12.37739   -4.31101
      H1     6.53317  -12.34106   -5.01189
       H    15.45262  -18.34020    0.54650
       O    14.80013  -17.81103    0.02394
      H1    15.17630  -16.91951    0.00575
       H     2.24262  -18.37908    0.20969
       O     2.69870  -17.60444    0.57046
      H1     2.55536  -17.64120    1.52848
       H     3.41490  -11.42181    0.67776
       O     2.58844  -11.55717    0.27013
      H1     2.84997  -12.24215   -0.33992
       H     5.37382  -16.42644   -5.67264
       O     5.56139  -15.47411   -5.45780
      H1     4.71708  -14.91671   -5.53312
       H     0.18427  -18.40768    4.04990
       O    -0.47340  -17.87504    3.53281
      H1    -0.00040  -17.93227    2.63698
       H     6.52924  -15.81183    8.03779
       O     6.75229  -15.17994    8.74928
      H1     7.55415  -15.58625    9.10351
       H     4.87682  -20.25769   -2.99833
       O     4.72919  -19.68746   -3.75422
      H1     4.86983  -18.83429   -3.25434
       H     9.23384  -18.56077   -1.52645
       O     9.39720  -17.71300   -1.09360
      H1    10.10151  -17.38849   -1.72554

