180
frame 7 | Written by MDAnalysis XYZWriter (release 2.4.3)
       H    12.42527  -11.58630  -13.97475
       O    12.03955  -11.35921  -14.84456
      H1    12.78694  -11.46534  -15.46041
       H    12.62746   -9.31064   -6.64083
       O    13.58134   -9.39994   -6.73945
      H1    13.93830   -8.83973   -5.98772
       H    16.14895   -4.96029   -4.28345
       O    16.55508   -4.63314   -3.43360
      H1    16.61923   -5.46744   -2.91275
       H    13.00949  -11.37119   -6.93970
       O    12.85732  -12.31664   -6.99292
      H1    13.22223  -12.73237   -6.19553
       H    11.88249   -5.30874   -3.90526
       O    11.90689   -5.29324   -4.86942
      H1    11.30662   -6.05405   -5.04463
       H    18.47866  -10.85778   -2.58474
       O    17.80257  -11.19195   -3.19977
      H1    17.39502  -10.33332   -3.52298
       H    17.51819   -6.03741  -14.29868
       O    17.27012   -6.38217  -13.44779
      H1    16.83985   -5.57708  -13.15518
       H     9.22078   -4.34403  -12.25459
       O     8.79780   -3.44605  -12.45736
      H1     8.93112   -3.52679  -13.39055
       H    13.04979   -2.70717  -10.31032
       O    13.06021   -1.81720   -9.99630
      H1    13.84288   -1.42531  -10.39679
       H    12.17016   -6.24811   -1.77174
       O    12.48980   -5.40771   -2.04806
      H1    13.48653   -5.50676   -1.83307
       H     9.01114   -2.41448  -11.06133
       O     9.25524   -2.10297  -10.17216
      H1     8.43178   -2.48170   -9.72497
       H    14.24569   -7.26111   -4.36194
       O    13.87694   -8.08096   -4.09692
      H1    13.80916   -7.89548   -3.13755
       H    14.07176   -6.28829  -11.70744
       O    13.28555   -5.78293  -11.93366
      H1    12.83335   -5.84645  -11.06042
       H    15.00779   -5.65601   -6.56326
       O    15.12861   -5.59571   -5.59830
      H1    14.15770   -5.45397   -5.44261
       H    10.14888  -10.28842  -10.55433
       O    10.89021  -10.81489  -10.14546
      H1    11.22154  -11.44327  -10.87532
       H    19.10376   -3.71372   -5.24624
       O    18.19047   -3.99789   -5.46448
      H1    17.88072   -4.12071   -4.55089
       H    13.09598   -4.72404  -13.34024
       O    13.27030   -4.18179  -14.17434
      H1    12.72204   -4.69947  -14.80937
       H     8.20193   -4.89703   -6.24671
       O     8.58495   -4.57311   -7.14469
      H1     9.35164   -4.01388   -6.87564
       H    17.72646  -11.12185  -12.75227
       O    18.62066  -11.56625  -12.74880
      H1    18.92839  -11.33389  -11.81129
       H    17.17872   -6.85336   -1.09662
       O    17.19125   -7.05206   -2.04361
      H1    18.04585   -7.58483   -2.06595
       H    16.20280    0.39019  -10.17750
       O    15.21355    0.43790  -10.22404
      H1    15.13061    1.44911  -10.21964
       H    18.05564   -9.49712   -7.32880
       O    17.54636   -8.68021   -7.35718
      H1    17.09092   -8.76858   -6.50241
       H    17.15169  -14.82061   -7.68631
       O    17.02936  -13.84697   -7.79919
      H1    17.64053  -13.56715   -8.53392
       H    16.05409   -3.67963   -8.78102
       O    15.66171   -3.94311   -9.64046
      H1    16.46621   -4.50765   -9.86410
       H    10.11950  -12.37018   -6.85213
       O     9.94021  -11.59071   -6.25388
      H1    10.58766  -10.98323   -6.59454
       H    14.53409   -3.32297  -15.34274
       O    14.79551   -2.56902  -15.88171
      H1    15.71102   -2.41044  -15.59001
       H    17.10288   -1.34667  -14.07965
       O    17.21144   -2.21104  -14.47597
      H1    16.80183   -2.84215  -13.79936
       H    14.45458  -12.43066  -13.56500
       O    14.20127  -13.29264  -13.97597
      H1    14.45698  -13.88913  -13.26056
       H    14.84331   -6.67722   -9.06361
       O    14.79435   -6.01935   -8.33470
      H1    15.22696   -5.25780   -8.73257
       H    18.40120   -5.26184   -9.50127
       O    17.86815   -5.50468  -10.25843
      H1    18.39077   -5.10851  -11.00943
       H    16.40094  -12.22978   -7.10834
       O    16.32576  -11.31917   -6.78669
      H1    15.74024  -10.87091   -7.44526
       H    16.42476   -9.30965   -8.82080
       O    16.38307   -9.84161   -9.66891
      H1    16.83708   -9.26926  -10.31730
       H    15.68399   -4.00744  -11.80580
       O    16.00236   -3.97253  -12.68608
      H1    15.18356   -3.89577  -13.21760
       H    15.61386   -3.69432   -6.28550
       O    16.03865   -3.10791   -6.95828
      H1    16.96964   -3.11218   -6.58912
       H    12.36185    0.77121  -11.52481
       O    12.39069    0.22620  -12.32195
      H1    12.05816   -0.57122  -11.88376
       H    10.62303   -5.87918   -8.70014
       O    10.33891   -6.40731   -7.93969
      H1     9.64677   -5.84526   -7.55398
       H    10.66042   -3.63049  -10.09897
       O    11.13606   -4.41526  -10.32789
      H1    10.65592   -4.86373  -11.03125
       H     9.25468   -7.08012   -4.78459
       O    10.08355   -7.58219   -4.66891
      H1    10.36080   -7.45614   -3.68488
       H     8.97002   -8.44027   -9.57031
       O     8.85757   -9.08277  -10.27829
      H1     8.17749   -8.80969  -10.91272
       H    14.29370   -7.61897  -14.66551
       O    14.99774   -7.95787  -14.09608
      H1    15.63538   -7.19524  -14.04611
       H    13.91109   -2.38985   -5.11934
       O    13.53916   -3.05445   -4.51160
      H1    13.09151   -3.58023   -5.21272
       H    12.73569   -7.56305  -16.07485
       O    13.25874   -6.74619  -15.83904
      H1    13.84548   -6.69353  -16.61289
       H     9.16998   -6.54655  -12.08235
       O     9.95583   -6.03544  -12.44848
      H1    10.66537   -6.68077  -12.41795
       H    15.02427  -12.83018   -9.72980
       O    15.62838  -12.44996  -10.42998
      H1    15.82377  -11.57684   -9.96469
       H    12.22201   -4.67463   -6.78432
       O    13.02669   -4.30467   -7.13656
      H1    13.34091   -5.05233   -7.67998
       H    11.28720   -2.85272   -7.06786
       O    10.44457   -2.76354   -6.56767
      H1    10.16707   -1.83235   -6.63697
       H    10.99505   -9.35603   -8.36240
       O    10.92028   -9.21624   -7.41607
      H1    10.69089   -8.25134   -7.40566
       H    18.05713   -5.22191   -6.79107
       O    18.42371   -5.64397   -7.58172
      H1    17.93069   -6.50804   -7.54182
       H    15.47843   -4.44560   -2.16623
       O    15.02769   -4.75995   -1.31475
      H1    14.75537   -3.87110   -0.98768
       H    16.65841   -8.74554  -15.27071
       O    17.03075   -9.03440  -16.09351
      H1    17.96364   -9.08000  -16.02968
       H    15.17839   -1.44632   -6.46555
       O    15.01758   -0.91293   -5.65335
      H1    14.35300   -0.31256   -6.00931
       H    16.34671   -9.98557   -5.19818
       O    16.63241   -9.18059   -4.76551
      H1    15.79670   -8.83516   -4.34629
       H    10.88032  -12.83091   -9.03073
       O    10.13965  -13.30888   -8.59767
      H1    10.57266  -14.14400   -8.32431
       H    13.63611  -13.77146   -8.28608
       O    14.25170  -14.28266   -8.85144
      H1    14.89564  -14.37672   -8.11801
       H    19.83628   -7.53355   -5.72334
       O    19.70727   -8.14334   -5.00744
      H1    18.79956   -8.35149   -5.13207
       H    14.44066  -10.99685  -10.88406
       O    13.85054  -10.25625  -10.83958
      H1    13.15547  -10.47404  -10.19070
       H    15.95063   -7.66369  -10.95434
       O    14.98405   -7.52620  -10.77391
      H1    14.64088   -8.42340  -11.03743
       H    11.83214   -8.76604  -11.63985
       O    11.66995   -8.03833  -12.25806
      H1    12.47412   -7.54629  -12.20706
       H    15.85991  -10.95824  -14.24190
       O    15.96841  -10.69572  -13.33937
      H1    15.44409   -9.88667  -13.35459
       H    18.12977   -7.37512  -10.76937
       O    17.77904   -8.06132  -11.33557
      H1    17.80679   -7.62954  -12.17305

