180
frame 2 | Written by MDAnalysis XYZWriter (release 2.4.3)
       H    12.46212   -7.14356   11.16729
       O    11.47764   -7.11823   11.10225
      H1    11.25743   -6.18497   10.95323
       H    10.53628   -2.62778   15.95537
       O    10.73334   -2.81279   16.88829
      H1    10.62920   -3.76590   17.03990
       H     5.67350    4.07601   11.14355
       O     4.74535    3.94614   11.34277
      H1     4.73042    3.12313   11.88931
       H     3.33044   -3.16217   11.35456
       O     3.90873   -3.57971   12.01610
      H1     3.22299   -3.98680   12.58521
       H     7.56170   -2.42683   11.05676
       O     6.91391   -1.99640   10.46650
      H1     6.53451   -2.77680   10.01198
       H     5.41220   -3.81671    8.15913
       O     5.87723   -4.10808    8.97755
      H1     5.24582   -4.48401    9.58227
       H    -1.02762   -1.34958   18.67044
       O    -0.59658   -2.09978   18.29577
      H1    -1.17751   -2.84898   18.30407
       H     0.60112   -7.37270   14.28822
       O     1.28094   -6.78909   14.68998
      H1     2.10443   -7.06375   14.31501
       H    10.77961   -8.66524   15.85002
       O    10.42957   -8.23071   15.09991
      H1     9.60436   -7.77375   15.40469
       H    -0.71965   -0.62591   14.13081
       O    -0.90165   -0.15100   13.33689
      H1    -1.48254    0.62983   13.58194
       H    13.25732   -6.66413   15.74258
       O    12.71359   -6.01340   15.23034
      H1    12.18856   -6.58590   14.67331
       H     4.49813   -3.42799   14.81312
       O     5.46005   -3.39929   14.74572
      H1     5.63317   -3.17619   13.79862
       H     5.31425    3.43091   14.88012
       O     5.50709    2.46322   14.90302
      H1     5.12618    2.12131   15.73133
       H     3.81309    0.28609   17.44533
       O     4.05057    0.20559   16.54220
      H1     4.83847   -0.34501   16.51003
       H     8.06161   -4.78011    8.71641
       O     8.79229   -5.18692    8.20276
      H1     8.34893   -5.75949    7.56484
       H     0.07831    0.69215   16.34726
       O     0.18047    1.61183   16.18016
      H1    -0.30159    1.99317   16.91365
       H     2.32757   -0.69367    9.97722
       O     2.33420   -0.19360    9.17450
      H1     3.25997   -0.04085    8.92805
       H    -0.46975   -4.30545   13.56076
       O    -1.38234   -4.58649   13.72290
      H1    -1.73324   -4.07995   14.51646
       H     7.20728   -5.81461   12.88063
       O     7.62595   -5.90894   12.04981
      H1     7.99119   -6.77629   12.09192
       H     4.28648  -10.76996   14.77701
       O     4.42922  -10.45128   13.84893
      H1     3.55245  -10.70029   13.54162
       H     9.21354   -8.69848   13.38066
       O     9.00015   -8.16244   12.59480
      H1     9.87257   -7.91674   12.32638
       H     7.76322    1.91884   17.71555
       O     8.51223    2.35786   18.16706
      H1     8.55985    3.19236   17.72281
       H     9.91193   -6.06897   17.08908
       O    10.56425   -5.42758   17.36259
      H1    11.40494   -5.50945   16.82826
       H     2.68318   -0.31939   13.97735
       O     2.50464   -0.97849   14.68210
      H1     3.04944   -0.68725   15.41616
       H     3.76439   -6.95333   10.05034
       O     3.13171   -7.45388    9.59406
      H1     2.28310   -7.07949    9.78624
       H     9.70056    1.23693   12.38657
       O     9.09807    0.51862   12.46702
      H1     8.45680    0.58082   11.78330
       H     0.95917   -1.14185   15.49971
       O     0.02258   -1.37462   15.66884
      H1    -0.06133   -1.68814   16.57014
       H     0.85265   -1.91463   11.62846
       O     1.51542   -2.05381   10.98510
      H1     0.88752   -2.43060   10.35412
       H     6.31028    2.03580   12.79341
       O     6.93390    2.06380   12.07251
      H1     6.37557    1.61491   11.34607
       H     2.91740    1.36472   19.94998
       O     3.13053    1.57688   19.05281
      H1     4.06367    1.76957   19.16012
       H     8.01253   -1.30818   18.22136
       O     8.99040   -1.32775   18.40817
      H1     9.45967   -1.84518   17.71488
       H     6.64164   -8.63184   19.35279
       O     6.74274   -8.84903   18.40656
      H1     6.78356   -9.81644   18.43008
       H     8.70200   -0.63062    8.34676
       O     8.17849   -0.08315    8.97063
      H1     7.80646   -0.75340    9.56759
       H     8.53560   -4.27350   12.27184
       O     8.80911   -3.39532   11.98742
      H1     9.39970   -3.07562   12.71173
       H     4.61412   -5.15039   11.45008
       O     5.04620   -5.99468   11.20902
      H1     6.00716   -5.91358   11.25511
       H     4.42652   -7.23009   12.83238
       O     4.35687   -7.37870   13.79601
      H1     4.08925   -8.28622   13.94366
       H     4.99022   -8.11103   17.75187
       O     4.08379   -7.79685   17.79135
      H1     4.08234   -7.00880   17.24063
       H     1.57950    2.55080   16.47479
       O     2.26339    3.20871   16.87480
      H1     2.62479    2.89582   17.75231
       H     1.29078   -5.40304   12.04205
       O     1.41941   -4.82347   12.80335
      H1     1.49265   -5.40893   13.56062
       H     5.84053   -0.41229   10.74619
       O     5.25674    0.34230   10.54067
      H1     4.42024    0.32200   11.10507
       H     5.34346    1.87018   18.17080
       O     5.56573    2.79281   18.10032
      H1     5.95852    3.05608   18.97919
       H    -0.52845   -4.89130   16.02397
       O    -0.02386   -5.39684   16.66505
      H1     0.62311   -5.95006   16.14415
       H     1.19852   -4.31637   19.45383
       O     1.72925   -3.58442   19.12940
      H1     1.08746   -2.95205   18.75843
       H     9.17976   -9.47399   16.68826
       O     8.94258  -10.40955   16.68749
      H1     9.80113  -10.80618   16.64768
       H     0.26337    1.04475   12.02865
       O     0.98966    1.67443   11.91970
      H1     0.95767    2.00974   10.99899
       H     0.13998   -7.27096   10.58281
       O     0.57811   -6.38840   10.49118
      H1     0.10713   -6.02252    9.77277
       H     7.77720  -10.71304   14.99738
       O     7.29896  -10.93332   14.18779
      H1     6.40434  -10.51965   14.29532
       H    10.24594    3.14834   12.57060
       O     9.42627    3.56132   12.86451
      H1     8.88826    2.81216   12.81322
       H    10.06077    1.49125   17.32919
       O    10.77998    1.41535   16.67391
      H1    11.34210    0.67389   16.96719
       H     7.23599   -0.95744   16.05853
       O     6.46083   -1.35037   16.41869
      H1     6.24270   -2.14905   15.91811
       H     3.39935   -4.49115   16.62358
       O     4.06166   -5.00965   17.14973
      H1     4.52533   -4.33628   17.64153
       H     5.46923   -6.56209   14.59440
       O     6.29046   -6.06782   14.84792
      H1     6.06355   -5.12376   14.89927
       H     4.32241    1.95038   13.62177
       O     3.96010    1.73539   12.72850
      H1     3.03063    1.86042   12.88931
       H     8.97368    0.39220   14.40760
       O     8.92783   -0.09156   15.23461
      H1     9.45842    0.44270   15.84259
       H     7.56898   -6.98395   15.92416
       O     8.29184   -7.26878   16.54404
      H1     7.84144   -7.68855   17.30628
       H    10.05405   -4.68778    9.49303
       O    10.56420   -4.62481   10.30978
      H1     9.94395   -4.03642   10.82122
       H     1.53659   -3.72595   16.68194
       O     2.00095   -3.58668   15.85229
      H1     1.60579   -2.80545   15.39132
       H     1.42466   -8.30751   16.02308
       O     1.78512   -9.00999   16.67916
      H1     2.58221   -8.61842   17.07722
       H    11.04331   -2.16031   13.82081
       O    10.14858   -2.39387   14.10837
      H1     9.74746   -1.60937   14.55376
       H     4.59209   -3.02497   19.43411
       O     5.04311   -2.70938   18.63472
      H1     5.26473   -1.78691   18.92580

