180
frame 6 | Written by MDAnalysis XYZWriter (release 2.4.3)
       H     8.76792    0.55758   -2.54713
       O     8.90834    0.39928   -3.46083
      H1     8.50201   -0.48604   -3.51353
       H     5.30590   -0.50929   -4.38191
       O     6.20609   -0.77921   -4.39878
      H1     6.27333   -1.64337   -3.98932
       H     6.95549    2.48954   -5.19450
       O     7.69588    2.71843   -4.53436
      H1     8.01751    1.80956   -4.28622
       H    13.84678    2.12689   -0.42641
       O    14.18750    1.46755    0.24164
      H1    15.08120    1.52665   -0.09476
       H    12.29165   -5.93520   -4.20022
       O    12.32937   -6.17509   -5.18282
      H1    11.45698   -6.53059   -5.31171
       H    13.30852    2.08617   -7.90324
       O    12.91290    1.50139   -8.56556
      H1    13.64300    0.89805   -8.75425
       H    13.87483    7.18683   -4.82787
       O    12.99570    7.56303   -4.61462
      H1    13.17451    8.16156   -3.93035
       H    12.45143   -6.27966   -2.23458
       O    12.45068   -5.35466   -2.48753
      H1    13.37974   -5.04757   -2.47740
       H    16.36946    0.63271   -1.61067
       O    15.92962    0.11235   -2.33169
      H1    15.23291    0.70825   -2.60783
       H    14.01042    3.87015   -1.12484
       O    13.67134    3.13994   -1.65103
      H1    12.87949    3.50659   -1.97143
       H     9.42529    3.46750   -5.00699
       O    10.28279    3.93431   -5.21202
      H1    10.81758    3.13671   -5.32696
       H    11.86803   -4.44920   -1.04270
       O    11.18475   -4.42299   -0.33469
      H1    11.17482   -3.52057   -0.00877
       H    14.33640   -2.95410    1.81409
       O    14.93669   -2.28270    1.52638
      H1    14.59859   -2.08046    0.64772
       H    14.52788    1.10441   -5.78575
       O    14.75117    2.06474   -5.75472
      H1    15.58531    2.13744   -6.19712
       H    11.48278    7.03869   -5.27130
       O    10.72384    6.54473   -5.63761
      H1    10.93306    5.62826   -5.47453
       H     8.32405   -5.46362   -5.67829
       O     8.28258   -5.09863   -6.58375
      H1     9.20139   -4.70582   -6.62677
       H    13.04112   -1.58401   -1.52619
       O    13.92935   -1.70286   -1.07411
      H1    14.33529   -0.91336   -1.49074
       H    16.63079   -2.80073    1.03969
       O    17.60233   -2.97384    1.31693
      H1    18.16028   -2.67392    0.51999
       H    11.80744    0.72866   -0.74589
       O    11.27355    0.60713    0.07821
      H1    11.75376    1.25346    0.61781
       H    17.21629    0.47152   -6.47257
       O    17.74157   -0.35850   -6.52682
      H1    17.01075   -0.93589   -6.76387
       H     9.84698   -0.47672  -10.29815
       O     9.89492    0.46531   -9.96542
      H1     9.04674    0.83348  -10.26044
       H     6.50474    2.43133   -1.80078
       O     6.31975    3.25487   -2.23386
      H1     6.73659    3.12719   -3.14310
       H    14.63987    4.63639   -6.88951
       O    14.53380    5.51655   -6.49405
      H1    15.30300    5.98562   -6.86599
       H    15.06160    2.62056    1.52281
       O    15.68525    3.00965    2.15258
      H1    15.96721    2.33692    2.80885
       H    11.85241    5.22774    0.04017
       O    11.19460    5.35107    0.72959
      H1    11.31776    4.57280    1.25974
       H    10.60736    4.05546   -1.39227
       O    11.20200    3.81748   -2.09811
      H1    10.88049    4.24920   -2.89265
       H    10.96499    3.93553    5.07831
       O    11.33121    4.00745    4.14669
      H1    12.02368    3.33486    4.15538
       H     9.69280    1.17963   -0.41029
       O     8.77267    1.27942   -0.71103
      H1     8.62977    2.19906   -0.59786
       H     7.77533    6.36735   -1.39435
       O     6.89716    5.97256   -1.56554
      H1     7.08104    5.04986   -1.76268
       H    14.91666    5.20625   -3.44251
       O    15.49808    4.48826   -3.27515
      H1    14.83928    3.84209   -2.99992
       H    14.50371    4.43842    2.46509
       O    13.63354    4.89374    2.49912
      H1    13.63121    5.32862    3.33224
       H    16.82929    3.92930   -2.48406
       O    17.55789    3.41659   -2.08102
      H1    17.99567    3.17764   -2.86338
       H    10.83602   -1.50712    0.95940
       O    10.96404   -2.19423    1.60855
      H1    11.54169   -1.69695    2.24275
       H    12.24679    0.69543   -7.25758
       O    12.21101    0.27354   -6.35755
      H1    11.43830   -0.29159   -6.61625
       H    10.02099   -2.22139   -2.80828
       O     9.33657   -2.91559   -2.80581
      H1     9.72746   -3.54427   -2.15017
       H     8.67597    3.78808    0.77071
       O     8.23554    3.87960   -0.03478
      H1     7.42086    4.36762    0.24111
       H    15.16716   -3.62002   -7.07496
       O    15.83089   -2.95926   -7.00580
      H1    16.33156   -3.40241   -6.21217
       H    10.47983    6.69616    1.59255
       O    10.42927    7.41766    2.26277
      H1     9.53453    7.85124    2.08086
       H    14.62210    5.90036    0.17317
       O    13.92260    5.32962   -0.12810
      H1    13.52913    5.32197    0.78604
       H    11.87637   -0.75577   -2.89093
       O    11.84134   -1.59747   -2.40788
      H1    12.25727   -2.17776   -3.13442
       H     7.48150   -1.80666    0.14744
       O     6.67913   -2.26914   -0.12304
      H1     6.98287   -3.17094    0.00369
       H     6.54274   -3.39368   -4.30927
       O     6.74682   -3.06636   -3.43478
      H1     7.79224   -3.19567   -3.46807
       H    13.61199   -2.12481   -5.10652
       O    13.11730   -2.80530   -4.60341
      H1    12.29743   -2.91318   -5.14552
       H    11.30470    2.65200    2.41110
       O    12.06694    2.78013    1.77510
      H1    12.56006    3.58232    2.18307
       H    11.80467   -3.52672   -7.24716
       O    10.78742   -3.59664   -7.13485
      H1    10.52190   -2.68315   -7.38561
       H    10.10344    9.09163   -5.11947
       O     9.82746    8.56550   -4.39304
      H1     9.95733    7.67253   -4.82280
       H    15.66592   -4.27978   -2.62156
       O    14.92323   -4.30700   -1.97174
      H1    14.75753   -3.33597   -1.92474
       H    14.93093   -1.49377   -6.31274
       O    14.44490   -0.85574   -5.78399
      H1    13.57993   -0.70389   -6.18230
       H    17.99145    2.18029   -7.52256
       O    17.45034    2.32733   -6.72510
      H1    18.09383    2.46576   -5.99632
       H    12.57024    8.33369   -0.61873
       O    13.46792    8.46325   -0.19288
      H1    13.86015    7.61806   -0.37279
       H    17.39731   -0.28198   -2.87072
       O    18.34728   -0.40521   -3.16365
      H1    18.26015   -0.31216   -4.10385
       H     9.90621    3.75831    3.13871
       O     9.29694    3.34681    2.50212
      H1     8.49621    3.24747    2.87965
       H     7.96125   -0.49771    4.23768
       O     8.67811    0.11864    4.05740
      H1     8.47859    0.44840    3.20989
       H    10.72847    1.08027   -3.08999
       O    11.67896    1.05376   -2.81031
      H1    11.91004    1.99090   -2.76782
       H    14.50888    3.36368   -9.23927
       O    15.41326    2.94659   -9.14239
      H1    15.97978    3.62734   -9.52026
       H     6.28930    1.41676    1.26033
       O     6.44471    0.96137    0.42134
      H1     7.41569    1.02938    0.22061
       H    12.68210    1.39246    5.15095
       O    13.23585    1.68261    4.40005
      H1    12.86302    1.20061    3.65788
       H     9.95281   -0.73303   -8.33028
       O    10.09074   -0.68766   -7.39495
      H1     9.58678    0.15438   -7.15868
       H    12.86204   -0.28621    1.42283
       O    12.94967   -0.25808    2.35564
      H1    13.86997   -0.47889    2.40955
       H    17.38483    1.80167    0.67393
       O    17.00762    1.51849   -0.18260
      H1    17.16469    2.29834   -0.75534

