180
frame 86 | Written by MDAnalysis XYZWriter (release 2.4.3)
       H   -11.01662   -0.41258   -6.08290
       O   -10.33561   -1.02080   -6.35705
      H1    -9.97696   -1.18814   -5.46967
       H   -12.00993   -5.37084   -5.92197
       O   -12.31828   -6.20732   -6.37527
      H1   -11.76574   -6.87156   -5.95852
       H   -13.48276   -6.65017   -0.60467
       O   -14.36951   -6.94339   -0.78012
      H1   -14.58363   -6.59583   -1.66255
       H   -13.54526   -2.94148   -4.81968
       O   -14.47479   -2.76574   -4.56127
      H1   -14.30560   -2.01606   -3.93108
       H   -15.57211    0.05458   -3.60725
       O   -14.98735   -0.30863   -2.97983
      H1   -14.95414    0.39583   -2.28284
       H    -8.11008   -2.31025   -6.96747
       O    -7.11166   -2.33484   -7.05976
      H1    -6.87153   -2.04632   -6.10850
       H    -9.30766   -2.35290   -3.32025
       O    -8.90800   -2.28824   -4.20916
      H1    -8.38589   -3.11007   -4.18179
       H   -12.56890    0.14861   -1.70682
       O   -11.70662   -0.12993   -2.18815
      H1   -11.31305   -0.73301   -1.53011
       H   -11.16293    3.49006   -3.13867
       O   -11.80221    4.20933   -3.28195
      H1   -11.17962    4.91653   -3.49609
       H    -7.10084   -4.35413   -2.79813
       O    -7.88290   -4.52848   -3.30485
      H1    -7.61065   -5.30159   -3.79545
       H    -8.54371   -0.56907  -10.57188
       O    -8.16915    0.29677  -10.36810
      H1    -8.72018    0.57648   -9.63832
       H    -3.48314   -1.94190   -8.89282
       O    -4.04718   -2.13074   -8.13743
      H1    -4.79807   -1.54607   -8.27209
       H   -10.45067   -8.24218   -5.34694
       O    -9.90041   -7.51463   -5.06341
      H1    -9.06589   -7.80700   -5.32116
       H    -9.81773   -2.33277  -11.30281
       O    -9.36928   -2.01343  -10.52143
      H1    -8.55257   -2.55450  -10.67431
       H   -10.95317    3.86199   -5.90612
       O   -11.55942    4.37263   -6.49427
      H1   -11.87124    5.02278   -5.87443
       H   -12.88835   -4.89574   -2.82175
       O   -11.90991   -4.66305   -2.87953
      H1   -11.51922   -5.52867   -2.68134
       H    -7.16480   -7.17448   -1.30103
       O    -6.26638   -7.02705   -1.14418
      H1    -5.91369   -7.43135   -1.93860
       H   -14.77943   -4.40244   -4.11455
       O   -14.85478   -5.13575   -3.48976
      H1   -15.37286   -5.83887   -4.02209
       H   -10.98457   -3.09360   -5.95365
       O   -11.64557   -3.63476   -5.52472
      H1   -11.23161   -4.01768   -4.70966
       H    -7.62874   -1.22425   -4.21497
       O    -6.94262   -0.51338   -4.34513
      H1    -7.34753    0.34631   -4.14184
       H   -12.06021   -0.00321    2.24342
       O   -11.47600    0.09705    3.00331
      H1   -11.37958    1.08381    2.94454
       H    -7.49465   -6.27978   -8.27483
       O    -6.79985   -5.87931   -7.68291
      H1    -7.42178   -5.16195   -7.39385
       H   -12.71204    1.09097   -9.42523
       O   -12.28348    0.89770   -8.56463
      H1   -12.75097    1.42060   -7.95807
       H   -16.34982   -1.40272   -0.42554
       O   -16.93067   -1.57140   -1.16127
      H1   -16.23040   -1.47545   -1.85864
       H    -8.93631   -5.83263   -2.42321
       O    -9.26376   -6.74315   -2.23889
      H1    -9.18358   -7.10902   -3.10714
       H   -11.41416   -1.40091   -9.50011
       O   -12.21388   -1.94048   -9.44146
      H1   -12.71869   -1.35779   -8.90720
       H    -9.00073   -2.12558   -0.58048
       O    -9.34946   -1.51998   -1.30171
      H1    -8.89419   -0.70341   -0.95071
       H    -3.73810    2.50088   -0.35090
       O    -4.33521    2.01505    0.21996
      H1    -5.18145    2.41647   -0.03282
       H    -6.85951    4.62188   -2.68100
       O    -6.26992    3.86648   -2.68635
      H1    -5.43335    4.32124   -2.76098
       H   -10.32061   -2.01950    2.41947
       O    -9.82485   -2.58152    1.80295
      H1    -8.91623   -2.41938    1.88203
       H    -6.56482   -0.66586   -7.82390
       O    -5.98854   -0.08287   -8.29499
      H1    -6.68480    0.34243   -8.89039
       H    -8.41914    0.57059    1.27208
       O    -8.72386    0.84876    0.41312
      H1    -9.29594    1.55378    0.59737
       H    -6.90929    2.49744   -0.98332
       O    -6.84365    2.78450   -0.01630
      H1    -7.45877    2.12053    0.31435
       H   -10.86603    1.22106   -2.72179
       O   -10.30518    2.00430   -2.94586
      H1   -10.01809    2.35048   -2.10264
       H   -14.03697   -0.84404    1.52836
       O   -13.26886   -0.67004    0.91828
      H1   -13.09595   -1.56663    0.64713
       H   -12.90939    0.10113   -4.13986
       O   -12.58591    0.35865   -5.00188
      H1   -12.74617    1.26500   -5.07461
       H    -3.07367   -4.01733    0.17197
       O    -3.59195   -3.25447   -0.01647
      H1    -3.74826   -2.79256    0.81526
       H    -5.05038   -3.50730    2.07022
       O    -5.30430   -4.46554    1.90886
      H1    -6.11176   -4.52301    2.48985
       H   -11.18709    3.06649    0.59092
       O   -10.26884    3.10348    0.19407
      H1    -9.94438    3.98296    0.29020
       H    -9.67382    1.72727   -6.11781
       O    -9.59305    2.57243   -5.59137
      H1    -9.79329    2.26925   -4.66422
       H    -5.02341   -5.27433   -4.78194
       O    -4.09636   -4.97565   -4.81013
      H1    -3.91284   -4.75403   -5.70558
       H    -5.49457    1.33018   -5.22967
       O    -4.72820    1.01799   -5.75575
      H1    -5.21385    0.90681   -6.58480
       H    -1.99137   -0.65066   -4.24514
       O    -2.03346   -0.70010   -3.26476
      H1    -2.98679   -0.59463   -3.11730
       H   -14.08932   -6.65667   -6.48707
       O   -15.01562   -6.67647   -6.75591
      H1   -15.06785   -6.04427   -7.46950
       H   -10.26223   -5.19897   -7.22522
       O    -9.32854   -5.15322   -6.92663
      H1    -9.33428   -5.73354   -6.12009
       H   -10.48398    0.99928   -8.46898
       O    -9.58654    1.07465   -8.17330
      H1    -9.52022    0.25425   -7.59498
       H   -11.64238   -7.83966   -3.10456
       O   -12.20322   -7.31493   -2.57568
      H1   -11.59053   -7.01859   -1.88591
       H   -14.35997   -0.64878   -6.53090
       O   -14.47374   -0.58407   -7.51740
      H1   -13.68842   -0.00710   -7.76855
       H    -6.90704   -6.63742   -5.81484
       O    -7.02672   -6.60089   -4.85798
      H1    -6.38374   -7.22573   -4.52539
       H    -6.82150    2.99559   -4.11209
       O    -7.01944    2.32791   -4.80392
      H1    -7.95721    2.49393   -5.03349
       H    -2.64876   -3.36038   -2.08620
       O    -1.77188   -3.33826   -2.45085
      H1    -1.79896   -2.48529   -2.94468
       H   -14.10992   -3.92981   -0.00778
       O   -13.46982   -3.31341   -0.49043
      H1   -12.90409   -3.81522   -1.06086
       H    -7.22242   -9.66331   -1.43689
       O    -7.93611   -9.49097   -2.09843
      H1    -8.75522   -9.13786   -1.56514
       H    -5.80389   -4.85812   -0.90960
       O    -5.79536   -3.92992   -1.25062
      H1    -4.89480   -3.63403   -0.95766
       H    -4.81908   -3.35486   -9.07700
       O    -5.33944   -3.99765   -9.57134
      H1    -5.96364   -4.35547   -8.90793
       H   -11.93085   -3.94071   -8.74955
       O   -11.98782   -4.80588   -9.20008
      H1   -12.45924   -5.28735   -8.51722
       H    -6.00406   -0.86202   -0.06574
       O    -6.31087   -1.67931    0.36627
      H1    -6.12811   -2.43964   -0.13859
       H    -4.49809   -1.46850    2.96133
       O    -4.31709   -1.91346    2.11970
      H1    -5.16194   -1.73048    1.61144
       H    -4.92151    0.64552   -2.26118
       O    -4.77727   -0.27471   -2.31034
      H1    -5.35154   -0.56841   -3.00958
       H   -11.12094   -7.08143   -0.15879
       O   -11.74248   -6.31364   -0.19986
      H1   -11.87446   -6.23651    0.75388

