180
frame 8 | Written by MDAnalysis XYZWriter (release 2.4.3)
       H   -19.29784   -9.86860  -13.84967
       O   -18.75642   -9.72677  -14.64288
      H1   -17.99592   -9.30616  -14.30127
       H   -10.14849   -6.75600  -17.27891
       O   -10.40559   -7.43289  -17.88678
      H1   -10.64986   -6.95002  -18.67855
       H   -13.95809  -13.97068   -8.17806
       O   -14.93323  -13.98781   -7.85846
      H1   -14.96225  -14.95058   -7.70356
       H   -12.03830  -15.12183  -13.64627
       O   -11.45271  -15.55885  -14.37520
      H1   -12.02482  -16.23492  -14.77984
       H   -12.89200   -9.13058  -10.23314
       O   -12.92266   -8.77329  -11.13248
      H1   -13.89552   -8.85817  -11.33592
       H    -8.12391  -12.16237  -13.95338
       O    -8.14989  -11.38218  -14.47681
      H1    -7.64896  -10.69679  -13.99759
       H   -10.06915   -6.73208  -14.46321
       O   -10.92041   -7.04840  -14.04615
      H1   -11.24302   -7.69663  -14.76173
       H   -12.16598  -12.99251   -9.57475
       O   -12.46817  -13.76603   -9.10399
      H1   -11.65816  -14.21634   -8.94746
       H   -17.87211  -16.49232  -18.66671
       O   -17.99674  -15.63560  -18.29192
      H1   -18.36343  -15.12570  -18.98748
       H    -6.22858  -17.31100  -15.19414
       O    -5.56319  -17.96909  -14.84507
      H1    -5.57616  -18.69128  -15.46190
       H    -8.78493  -11.60277  -18.73731
       O    -9.01021  -10.76941  -18.39133
      H1    -8.15037  -10.37105  -18.08786
       H   -12.27990  -17.29356  -17.93110
       O   -12.04844  -17.49322  -17.00411
      H1   -12.42831  -18.36321  -16.83098
       H   -13.48602  -19.04532  -14.04511
       O   -13.51748  -19.94551  -14.35554
      H1   -13.14008  -20.09866  -15.25307
       H   -14.22532  -16.84806  -13.59097
       O   -13.44963  -17.41523  -13.80411
      H1   -12.93080  -17.30179  -13.00544
       H    -8.04942  -17.01499  -16.61462
       O    -7.88101  -16.58981  -15.70176
      H1    -7.80989  -15.67492  -15.92612
       H    -9.76573   -8.33608  -13.24035
       O    -9.00937   -8.71136  -12.82516
      H1    -8.98159   -9.50846  -13.37299
       H   -15.98845  -13.10575  -13.62644
       O   -16.16264  -12.98374  -12.69481
      H1   -15.35367  -12.77037  -12.17827
       H   -17.09196  -12.87903  -15.92303
       O   -16.16192  -13.16688  -15.68976
      H1   -16.04881  -13.98128  -16.27675
       H   -15.19436  -11.53348  -14.99946
       O   -15.05823  -10.64762  -14.68491
      H1   -15.35000  -10.65631  -13.76820
       H   -10.71916  -11.19189  -12.62809
       O   -11.44917  -10.64197  -12.80519
      H1   -11.32416   -9.87714  -12.20021
       H   -17.11959   -8.45379  -11.61453
       O   -17.40828   -7.54086  -11.64094
      H1   -17.88196   -7.40018  -10.76268
       H   -18.75678  -15.41345  -11.53953
       O   -19.69787  -15.57546  -11.53118
      H1   -19.74305  -16.58073  -11.73162
       H   -13.08498  -11.47574  -12.12629
       O   -13.59907  -12.22069  -11.64255
      H1   -13.45619  -11.86033  -10.72304
       H    -8.49043  -12.92061  -15.96499
       O    -8.40685  -13.83456  -16.28245
      H1    -9.39802  -13.95572  -16.30977
       H   -12.69633  -14.20205  -17.98393
       O   -13.08541  -14.61544  -18.78287
      H1   -13.72337  -13.96567  -19.12171
       H   -15.15022  -17.28074  -17.30279
       O   -15.16896  -18.22382  -17.03069
      H1   -14.34687  -18.38703  -16.58513
       H   -18.06835  -14.03985   -8.25971
       O   -17.39710  -13.53250   -8.64016
      H1   -16.55123  -13.86184   -8.28883
       H   -10.09460  -11.10822  -15.42171
       O   -10.85567  -11.03826  -16.05274
      H1   -10.41177  -10.78524  -16.84943
       H    -7.29414  -17.36943  -12.26826
       O    -6.90966  -16.71412  -12.87454
      H1    -6.45788  -17.26472  -13.54585
       H    -8.94644  -15.65348  -11.52891
       O    -8.41449  -15.00051  -11.08615
      H1    -7.65663  -15.60888  -10.86556
       H   -12.88001  -13.66031  -12.07075
       O   -12.56985  -14.59964  -12.11304
      H1   -12.78271  -14.97791  -11.23081
       H   -16.47473  -18.48865  -15.92321
       O   -17.18155  -18.46380  -15.25837
      H1   -17.24735  -19.41013  -14.96256
       H   -19.53325  -17.04656   -9.21633
       O   -19.01427  -17.86680   -9.05000
      H1   -19.59519  -18.26034   -8.34680
       H   -16.51208  -17.08185  -13.96067
       O   -16.37402  -16.15269  -13.76512
      H1   -16.51443  -15.78892  -14.72560
       H    -7.54355  -13.41379  -18.20128
       O    -8.04239  -13.33721  -19.06372
      H1    -7.44928  -13.01851  -19.76122
       H   -15.50563   -8.50746  -18.19983
       O   -15.64841   -8.27876  -19.13998
      H1   -16.66120   -8.00631  -19.05338
       H    -9.52439   -9.31437  -11.30348
       O    -9.83740   -9.91224  -10.58136
      H1    -9.92575  -10.81193  -11.07084
       H   -13.36264   -9.42426  -17.25452
       O   -13.51711   -9.95252  -18.02364
      H1   -14.32249  -10.41478  -17.78987
       H   -17.85293  -19.59891  -11.24560
       O   -17.08239  -19.11168  -10.86436
      H1   -17.52943  -18.38029  -10.41618
       H    -9.17355  -13.15301  -11.64397
       O    -9.03606  -12.26241  -11.97873
      H1    -8.31514  -11.98746  -11.40813
       H   -17.13349  -11.43940  -11.41796
       O   -17.14317  -10.45335  -11.44945
      H1   -17.97776  -10.31680  -10.96535
       H   -17.25417   -9.82605  -18.00974
       O   -17.87076  -10.37013  -18.53080
      H1   -18.17342  -10.96155  -17.84724
       H   -15.90041   -9.63975  -15.89320
       O   -16.29613   -8.98538  -16.53128
      H1   -16.17115   -8.12927  -16.05932
       H   -18.55407   -7.30678  -19.54803
       O   -18.24478   -7.34086  -18.59727
      H1   -18.19886   -6.37603  -18.43622
       H   -16.83279  -14.97958  -11.98988
       O   -17.14322  -15.27441  -11.08262
      H1   -17.13849  -14.48211  -10.55864
       H   -19.36357  -16.42143  -16.73075
       O   -19.49673  -16.98054  -15.92384
      H1   -18.61601  -17.51039  -15.96710
       H   -16.40450   -5.79690  -15.35241
       O   -15.40398   -5.84436  -15.38097
      H1   -15.11411   -5.25023  -14.63084
       H   -13.31241  -17.25142  -10.66486
       O   -12.43834  -17.52415  -10.94710
      H1   -11.88717  -17.43499  -10.18163
       H   -11.13385  -13.00396  -16.32439
       O   -11.19087  -13.92906  -16.50939
      H1   -11.37992  -14.38186  -15.64462
       H    -9.30726  -18.08026  -12.13544
       O    -8.66824  -18.23157  -11.42160
      H1    -9.22484  -18.56200  -10.69147
       H    -6.72263  -16.53943  -18.58228
       O    -5.87384  -16.12715  -18.93734
      H1    -5.46444  -15.93255  -18.07483
       H   -15.58187  -17.72847  -11.08077
       O   -15.04755  -17.14798  -10.56100
      H1   -15.55718  -16.33335  -10.73324
       H    -8.87550  -16.82561  -19.05337
       O    -8.30069  -17.51605  -18.72058
      H1    -8.82942  -18.26937  -18.75451
       H   -13.46402   -5.45423  -18.33375
       O   -13.63616   -5.07213  -17.43328
      H1   -14.07666   -5.72610  -16.87267
       H   -16.45417  -15.26436  -17.72563
       O   -15.57076  -15.46998  -17.29851
      H1   -14.84964  -15.21268  -17.92772
       H   -15.65380  -16.90108   -8.79360
       O   -15.94105  -16.69171   -7.90156
      H1   -16.88755  -16.54964   -8.03530
       H   -16.87030  -19.00565  -18.43675
       O   -17.20989  -18.25907  -18.98636
      H1   -16.66325  -18.16870  -19.80577
       H    -9.00982  -17.52792  -14.32658
       O    -9.88512  -17.73060  -13.77506
      H1   -10.28835  -16.81302  -13.91978
       H   -18.64654  -11.08259  -15.84796
       O   -18.54868  -11.82965  -16.45835
      H1   -19.33585  -12.39443  -16.23436
       H   -11.78463   -9.43456  -15.77586
       O   -12.12880   -8.53521  -15.99847
      H1   -11.53619   -8.15777  -16.65350

