180
frame 8 | Written by MDAnalysis XYZWriter (release 2.4.3)
       H   -15.97925   -6.73544   -2.41123
       O   -16.15637   -6.62612   -3.37450
      H1   -17.12795   -6.61458   -3.35541
       H   -11.67847   -3.60710   -3.85082
       O   -12.11282   -3.09127   -3.16562
      H1   -12.93564   -2.90591   -3.64937
       H   -11.46672   -6.40549   -1.70246
       O   -11.78201   -7.22224   -2.13013
      H1   -10.92361   -7.71647   -2.23681
       H   -15.75073   -8.21367    2.01767
       O   -16.13557   -7.36745    2.14576
      H1   -16.87065   -7.50907    2.75943
       H    -9.93879   -3.86608   -5.56793
       O   -10.90809   -3.94301   -5.64103
      H1   -10.99027   -4.81979   -6.13091
       H   -13.14038   -4.02319   -9.43505
       O   -12.36810   -3.41887   -9.49814
      H1   -12.32952   -2.96808   -8.65794
       H   -16.16461   -4.73879   -8.68239
       O   -16.91811   -4.23339   -8.41406
      H1   -16.57971   -3.59872   -7.78079
       H   -15.02825   -3.39170    0.16066
       O   -15.76586   -3.46488   -0.41133
      H1   -16.46199   -3.48621    0.29241
       H   -12.37678  -12.53278   -2.15789
       O   -12.18893  -13.06918   -2.94803
      H1   -13.06241  -13.48937   -3.16588
       H   -12.39113   -3.43582    1.38071
       O   -11.46964   -3.62982    1.07692
      H1   -11.18691   -3.67330    2.00355
       H   -19.24083   -3.03707   -0.84272
       O   -19.30907   -2.23503   -0.31153
      H1   -19.48854   -1.63346   -1.07827
       H   -10.24424   -6.14898   -7.77374
       O   -10.92755   -6.36949   -7.07443
      H1   -10.44343   -7.03869   -6.47832
       H   -17.81886   -7.20798   -8.82296
       O   -18.65687   -7.46268   -9.26013
      H1   -18.91714   -8.33622   -8.96024
       H   -19.09686   -8.46678    1.43915
       O   -19.61388   -8.44107    0.57242
      H1   -19.67594   -7.49780    0.58395
       H   -18.64726  -12.95851   -3.54090
       O   -18.79323  -13.34215   -2.64224
      H1   -19.45710  -12.71064   -2.31359
       H   -14.26996   -1.14891   -5.90592
       O   -14.19291   -0.73400   -6.80006
      H1   -13.42432   -1.29527   -7.01693
       H   -13.65084   -8.18198   -1.50798
       O   -14.30397   -8.74476   -1.98046
      H1   -13.68589   -9.48182   -2.04694
       H    -9.03704  -10.34804   -5.60959
       O    -9.80828  -10.28681   -6.28761
      H1   -10.43371  -10.96136   -5.98139
       H   -17.82198   -5.47591   -7.40559
       O   -18.30262   -6.08115   -6.80580
      H1   -19.24648   -5.80937   -7.03082
       H   -18.05289   -2.52899   -5.57376
       O   -18.47525   -2.96117   -4.81410
      H1   -17.76347   -3.36419   -4.32910
       H   -12.88029   -7.96736   -3.57975
       O   -12.88854   -8.28100   -4.50988
      H1   -13.81343   -8.17875   -4.71953
       H   -15.52429  -10.07889    0.55012
       O   -14.80440   -9.46387    0.76390
      H1   -14.60734   -9.09172   -0.08450
       H   -17.38724    0.03638    0.15854
       O   -17.12877    0.90169    0.45403
      H1   -16.30723    0.73218    0.96259
       H   -15.83203   -2.42935  -10.77207
       O   -16.52024   -3.06738  -10.74386
      H1   -16.66975   -3.26297   -9.77115
       H   -17.18648  -10.61478   -6.39412
       O   -16.67203  -10.47818   -5.61009
      H1   -17.28630  -10.22635   -4.90384
       H   -14.64812   -2.60000    2.72562
       O   -13.93707   -2.22978    2.09740
      H1   -14.25190   -1.44361    1.71682
       H   -17.11959   -8.45379  -11.61453
       O   -17.40828   -7.54086  -11.64094
      H1   -17.88196   -7.40018  -10.76268
       H   -16.09619   -9.27386   -8.43062
       O   -15.93141   -8.34242   -8.28457
      H1   -16.14211   -8.22298   -7.28241
       H   -12.70903  -10.70523   -8.37943
       O   -12.32734  -10.67676   -9.26991
      H1   -11.37786  -10.54880   -9.11198
       H   -16.14180  -12.19648   -1.51609
       O   -16.35147  -12.55268   -2.41333
      H1   -17.26600  -12.82766   -2.23772
       H   -16.97787   -1.46373   -7.54417
       O   -16.51627   -2.06683   -6.87461
      H1   -15.56404   -1.71401   -6.90855
       H    -9.27927   -8.62426   -2.15827
       O    -9.92171   -9.34920   -2.41885
      H1    -9.87897   -9.25752   -3.41452
       H   -11.88851  -12.59108   -4.84639
       O   -11.46872  -12.44036   -5.76943
      H1   -12.21773  -12.00813   -6.29527
       H   -18.17912  -10.49701   -1.47537
       O   -18.87918  -10.92667   -1.00013
      H1   -19.23762  -10.25100   -0.45197
       H   -11.12117   -7.82328   -4.79176
       O   -10.22693   -7.84285   -5.11615
      H1   -10.18048   -8.73443   -5.54960
       H    -9.19828   -6.04832   -1.73485
       O    -8.69417   -6.86016   -1.56463
      H1    -8.06981   -6.53196   -0.87335
       H   -17.81824  -11.28806    0.32793
       O   -17.10304  -10.87373    0.91968
      H1   -17.37295  -11.24099    1.79790
       H   -12.27078  -12.13370   -0.25677
       O   -12.41309  -11.45451   -0.95690
      H1   -11.74626  -10.77491   -0.74728
       H   -18.45249   -2.84788    1.86477
       O   -17.90067   -3.62854    1.86888
      H1   -17.64621   -3.69404    2.78514
       H   -15.99748   -1.40896   -1.76922
       O   -16.17898   -0.52267   -2.11886
      H1   -15.46749    0.08125   -1.75445
       H   -11.34068   -2.55897   -6.70307
       O   -11.81380   -1.86174   -7.18652
      H1   -11.09477   -1.17243   -7.17520
       H   -14.86923  -13.99680   -4.10598
       O   -14.40506  -14.59641   -3.52205
      H1   -14.86979  -14.38201   -2.70827
       H   -12.64809   -7.41693    3.14708
       O   -13.09858   -6.67405    2.74084
      H1   -13.98483   -6.88874    3.07714
       H   -17.64498   -7.44300   -0.58358
       O   -16.73881   -6.98595   -0.52417
      H1   -16.73076   -7.01632    0.43580
       H   -18.97216   -7.36749    3.94559
       O   -18.71160   -8.02205    3.24141
      H1   -18.57579   -8.76334    3.81669
       H   -17.60173   -4.65780   -1.73254
       O   -18.59889   -4.66773   -1.63994
      H1   -18.74331   -5.14843   -0.78803
       H   -19.22222   -7.25482   -4.27208
       O   -18.99182   -6.98422   -3.36176
      H1   -19.25010   -6.06559   -3.33558
       H   -14.89579   -1.00209   -3.61364
       O   -14.34567   -1.66060   -4.03628
      H1   -14.84139   -2.52094   -3.96237
       H   -12.78664   -6.09545   -6.71965
       O   -13.76900   -6.12328   -6.76899
      H1   -14.00813   -7.02611   -6.98838
       H   -11.24545   -4.16973   -1.54514
       O   -10.80583   -4.90140   -1.13093
      H1   -10.99853   -4.68274   -0.22895
       H   -13.14905  -10.28816    3.49091
       O   -13.74069   -9.55762    3.31909
      H1   -13.67167   -9.42159    2.34617
       H   -17.42064   -8.70053   -2.67950
       O   -17.20779   -9.60396   -2.80948
      H1   -16.28814   -9.70118   -2.57465
       H   -14.00056  -10.97672   -6.11000
       O   -13.37121  -10.59724   -6.77948
      H1   -13.25040   -9.75625   -6.37447
       H   -19.40163  -11.26972   -6.86976
       O   -19.37139  -10.46698   -7.44539
      H1   -19.13848   -9.82104   -6.76976
       H   -15.56334   -5.03795   -3.34087
       O   -15.86583   -4.15748   -3.10975
      H1   -15.58595   -4.11893   -2.16351
       H   -10.97587   -1.42861   -1.18818
       O   -11.64277   -0.93917   -1.75551
      H1   -11.83879   -1.68659   -2.32943
       H   -14.32662   -5.83713   -9.94481
       O   -14.37741   -5.19861   -9.20244
      H1   -13.98940   -5.68594   -8.40832
       H   -14.62685  -12.26046    0.67551
       O   -15.42038  -12.70730    0.37419
      H1   -16.07298  -11.95257    0.72307
       H   -15.53206   -7.69333   -4.83572
       O   -15.32211   -8.20305   -5.67660
      H1   -15.82597   -8.97099   -5.51670
       H   -15.73414  -12.04868   -5.38994
       O   -15.05472  -12.72542   -5.42986
      H1   -15.01988  -12.89325   -6.40545

