180
frame 6 | Written by MDAnalysis XYZWriter (release 2.4.3)
       H     7.16841  -18.84292   -4.12287
       O     6.84301  -19.55942   -4.65197
      H1     5.88655  -19.63494   -4.61863
       H     2.94417  -17.07108  -10.60417
       O     2.57038  -17.92665  -10.65251
      H1     2.46721  -18.11373  -11.59311
       H     1.41965  -11.46089   -6.82400
       O     1.11472  -12.12027   -7.45278
      H1     0.67028  -12.78092   -6.87190
       H     9.70681  -12.70705   -0.31161
       O     9.02716  -12.57158   -1.02985
      H1     8.62776  -11.69754   -0.93331
       H     0.27095  -16.69992    2.27027
       O     1.26916  -16.87167    2.35267
      H1     1.70680  -16.05799    2.61163
       H    -0.51649  -19.72463   -5.82508
       O     0.34732  -19.34063   -5.76889
      H1     0.38010  -18.74424   -6.55793
       H     2.74704  -11.14673   -5.04363
       O     1.79397  -10.86643   -5.14170
      H1     1.28458  -11.50248   -4.64765
       H     8.72349  -16.85193   -0.13326
       O     9.02956  -16.35407    0.67929
      H1     8.76072  -16.90716    1.41219
       H    -3.67060  -17.94172   -4.26574
       O    -2.78497  -18.18273   -4.55012
      H1    -2.37996  -17.52332   -5.03572
       H     2.44920  -14.47449    1.62394
       O     2.76575  -14.53334    2.54186
      H1     3.69677  -14.93145    2.34186
       H     8.23783  -13.94968   -2.45850
       O     7.84243  -14.59660   -3.00312
      H1     8.37681  -14.62004   -3.85460
       H     9.67412  -20.13499    1.80060
       O    10.07814  -19.39759    1.27633
      H1    10.27012  -18.72023    1.92201
       H     6.90717   -9.96758   -1.21063
       O     7.84762   -9.91483   -1.20045
      H1     8.06607   -9.09716   -1.62339
       H     9.11728  -17.91008   -1.54135
       O     8.19053  -17.85468   -1.29661
      H1     7.70578  -17.63141   -2.07482
       H     4.76445  -13.41381   -2.53181
       O     4.09357  -12.70510   -2.78951
      H1     3.57115  -13.23805   -3.38035
       H    -1.10838  -14.52336   -5.65540
       O    -0.79002  -13.58684   -5.80374
      H1    -1.47076  -12.96613   -6.15991
       H     6.63882  -17.23624   -9.25304
       O     6.93354  -16.52188   -9.83920
      H1     6.19139  -16.44263  -10.49838
       H    -0.24349  -12.95721   -4.22139
       O     0.59124  -12.86007   -3.70064
      H1     0.37649  -13.15551   -2.80251
       H     8.98104  -12.91936    3.98314
       O     8.32902  -13.61983    3.99328
      H1     8.04065  -13.65323    3.04473
       H     6.32219  -16.04215   -6.03354
       O     5.64560  -16.70889   -5.98203
      H1     4.82833  -16.41369   -6.42097
       H     2.24555  -15.36406   -0.49550
       O     1.96285  -14.53795   -0.03133
      H1     2.55091  -13.85161   -0.33323
       H     4.82568  -13.09797   -7.73333
       O     5.33631  -12.91450   -6.96012
      H1     4.78777  -12.25048   -6.57334
       H     5.69220  -16.51425    1.42857
       O     5.48733  -15.67939    1.85318
      H1     6.02686  -15.06991    1.36970
       H     8.12740  -14.75383    1.11624
       O     7.75476  -13.85789    1.25183
      H1     8.09814  -13.38544    0.51910
       H     6.60973  -14.39720   -7.60595
       O     7.33815  -15.01258   -7.54533
      H1     7.22854  -15.46763   -8.38674
       H     7.76833  -18.66311   -6.47518
       O     8.65560  -18.27306   -6.61590
      H1     8.72141  -18.43943   -7.57385
       H     4.75007  -10.42374   -4.70604
       O     4.28037  -11.21834   -5.08384
      H1     4.28286  -11.86568   -4.34326
       H     2.36521  -11.62846   -8.81332
       O     3.23128  -11.43259   -9.06701
      H1     3.16122  -11.33317  -10.04305
       H     6.84394  -16.14759   -3.28284
       O     6.40561  -16.98086   -3.22547
      H1     6.29619  -17.18645   -4.24781
       H    10.39747  -17.11297   -6.62942
       O    11.21370  -16.58021   -6.47529
      H1    11.02125  -15.72569   -6.17960
       H     8.61058  -11.25775   -6.02868
       O     9.36508  -11.83917   -5.95246
      H1     9.40379  -12.20895   -6.86760
       H     0.93467  -18.24968   -4.41736
       O     1.05514  -17.94880   -3.49101
      H1     0.16400  -17.89847   -3.11604
       H     5.02569  -18.44156    0.81295
       O     5.95962  -18.28881    0.72989
      H1     6.20092  -18.05709   -0.13751
       H     4.52927  -15.88160    4.83524
       O     4.27230  -16.81858    5.08044
      H1     3.54681  -17.02480    4.48303
       H     6.10263  -19.37215   -9.75565
       O     6.12936  -19.22071   -8.78226
      H1     5.23898  -18.87807   -8.44545
       H     0.31182  -10.35689   -1.44632
       O     0.29790  -10.42427   -0.48471
      H1    -0.00627   -9.58455   -0.20221
       H    -1.44650  -15.28514   -0.83097
       O    -1.92677  -16.02226   -0.42579
      H1    -1.62050  -16.68297   -1.02492
       H    -2.58964  -15.72540   -6.65530
       O    -1.88228  -16.09999   -6.09113
      H1    -1.22951  -16.47145   -6.68012
       H    11.19950  -18.71708   -2.20316
       O    10.82646  -17.87954   -1.84733
      H1    11.20225  -17.15409   -2.31771
       H    -1.66283  -15.85265    1.50530
       O    -1.42945  -16.13857    2.38541
      H1    -1.13254  -15.34817    2.88215
       H    11.72645  -16.92437   -0.62522
       O    11.70741  -16.28159    0.14198
      H1    10.72349  -16.15048    0.34643
       H     3.87431  -16.65836   -1.81138
       O     3.77662  -16.19823   -2.65155
      H1     4.64050  -16.43921   -3.00388
       H     6.47503  -10.74710   -5.91559
       O     6.99019  -10.02137   -6.23184
      H1     6.73152   -9.93066   -7.10971
       H    -0.82407  -13.12613   -0.81153
       O    -0.27679  -13.82665   -1.24546
      H1     0.42231  -14.09891   -0.63096
       H     5.93414  -13.82242    4.56369
       O     5.19585  -14.41204    4.29950
      H1     5.50148  -14.92999    3.54389
       H    -1.85798  -18.27705   -2.90862
       O    -1.57450  -18.13094   -1.98028
      H1    -1.58716  -18.99335   -1.59194
       H     2.76722  -15.30312   -3.64261
       O     2.51840  -14.53170   -4.24379
      H1     1.69789  -14.13237   -3.96533
       H     2.18044  -16.95106    0.56303
       O     2.76623  -17.05387   -0.19464
      H1     2.27135  -17.65584   -0.79701
       H     0.69655  -16.36606   -7.31717
       O     0.22320  -17.16071   -7.45077
      H1     0.14815  -17.22988   -8.44865
       H     0.35825  -17.68362    5.00294
       O     0.37362  -18.36524    4.33652
      H1     0.72182  -17.93982    3.51973
       H    10.98472  -20.08595   -4.39273
       O    10.52797  -20.03483   -5.25070
      H1    10.07833  -19.13067   -5.23809
       H     2.82959  -14.49242  -10.18314
       O     2.06538  -15.09630  -10.18894
      H1     1.24575  -14.64290  -10.33367
       H     4.92706  -13.23161  -10.08722
       O     4.58152  -14.05624   -9.64119
      H1     5.04145  -14.69403  -10.22318
       H     2.75484  -14.73118   -7.62310
       O     2.39879  -15.38481   -7.04542
      H1     2.50642  -15.04105   -6.12793
       H     1.84838  -11.46372   -0.41334
       O     2.70960  -11.87443   -0.48440
      H1     2.94513  -11.85927   -1.43197
       H     8.81437  -17.23041    4.31958
       O     8.76865  -16.79120    3.45862
      H1     8.65828  -15.91083    3.69922
       H     8.51725  -14.78857   -6.14772
       O     9.27048  -14.61395   -5.53041
      H1     9.38093  -13.58864   -5.42715
       H    10.26885  -11.41961   -1.50380
       O    10.86815  -10.63727   -1.64577
      H1    11.42279  -10.90377   -2.39676
       H     3.16950  -18.56507   -9.00668
       O     3.49722  -18.78195   -8.11331
      H1     3.28400  -18.03819   -7.54194
       H     4.87013  -10.03554    1.19524
       O     4.50871  -10.04758    0.31654
      H1     3.90280  -10.78587    0.30482

