180
frame 5 | Written by MDAnalysis XYZWriter (release 2.4.3)
       H     7.27221    4.81881  -18.70728
       O     6.29973    4.96278  -18.47815
      H1     6.30611    4.66492  -17.54904
       H    14.92781   -0.67914  -19.58553
       O    15.08186    0.26464  -19.68983
      H1    16.00097    0.31214  -19.18745
       H    12.27190    4.47822  -17.29145
       O    11.51454    5.14265  -17.25319
      H1    10.71405    4.62505  -17.00180
       H     6.84245    0.84475  -19.49220
       O     6.78651   -0.00250  -19.03967
      H1     7.14661    0.13735  -18.18448
       H     9.56526   -3.64760  -13.30695
       O     8.81585   -3.00973  -13.27293
      H1     9.09612   -2.33612  -13.81853
       H    11.85769    8.59796  -13.40242
       O    11.50994    8.00069  -14.06194
      H1    12.37364    7.51395  -14.30928
       H    11.29886   -3.38732  -15.62774
       O    11.22826   -4.31404  -15.41959
      H1    11.91486   -4.65167  -16.04110
       H    12.99806   -2.34541  -10.97868
       O    13.40489   -1.48557  -10.80827
      H1    14.25069   -1.74147  -10.37425
       H     9.85168   -1.94435  -11.53096
       O    10.09498   -2.12882  -10.62645
      H1     9.30033   -2.43363  -10.25211
       H     6.89173    0.95030  -12.46214
       O     6.82529    0.77250  -13.41063
      H1     5.89697    0.95697  -13.54533
       H     8.88845    0.32291  -13.58966
       O     9.38230   -0.33616  -14.09356
      H1    10.15752    0.26922  -14.39291
       H    13.36688   -4.48168  -13.02771
       O    13.48601   -3.77166  -13.70546
      H1    12.82766   -4.07062  -14.33258
       H    16.81617    7.46464  -15.49867
       O    17.73465    7.16646  -15.27863
      H1    18.29103    7.88995  -15.62110
       H    14.20419    4.48683  -18.35880
       O    13.82682    3.91718  -17.62143
      H1    13.42153    3.20680  -18.18548
       H     7.52951    6.64712  -18.29755
       O     7.67458    7.62185  -18.25265
      H1     8.55329    7.72017  -18.74556
       H    11.87077   -1.01429  -16.73608
       O    11.44291   -1.02925  -17.60445
      H1    10.52426   -1.25957  -17.32742
       H     5.27377    1.01778  -18.26903
       O     4.36480    1.35372  -18.39735
      H1     4.00594    1.58166  -17.53436
       H    11.15599    2.49013  -10.47963
       O    11.77283    2.82764  -11.12365
      H1    11.95585    3.68808  -10.76088
       H    15.35853    5.92111  -12.50730
       O    14.62892    6.44442  -12.79488
      H1    14.34138    6.07334  -13.65063
       H    10.29987   -0.14223  -10.46288
       O    10.19793    0.73567  -10.03155
      H1     9.28926    0.93026  -10.35874
       H     9.38647    3.51213  -15.23206
       O     9.49319    3.18022  -16.17071
      H1     8.70935    2.71819  -16.39991
       H    16.38169    4.04940  -12.12898
       O    16.88547    4.82054  -11.82621
      H1    17.54109    5.03648  -12.54075
       H    12.97829    5.68577  -15.96844
       O    13.31153    5.59405  -15.04413
      H1    12.58616    5.06394  -14.62751
       H    15.63022   -4.06044  -17.33357
       O    15.84460   -4.38329  -18.20485
      H1    15.38932   -5.23679  -18.22844
       H    14.71744   -2.84227  -15.37602
       O    15.50832   -2.95778  -15.88024
      H1    16.30306   -2.82020  -15.25809
       H    17.72805   -1.06092  -13.93690
       O    17.68239   -2.01595  -14.25931
      H1    17.43380   -2.48031  -13.49697
       H     9.05363    7.13389  -12.69810
       O     9.48410    6.52707  -13.29851
      H1    10.18089    7.12726  -13.57850
       H     6.76578    6.45793  -15.42074
       O     6.57897    7.33307  -15.76446
      H1     7.09674    7.31469  -16.58078
       H     8.07711    5.71398  -14.28084
       O     7.34282    5.11283  -14.35341
      H1     6.93400    5.14765  -13.48588
       H    16.05647   -2.72908  -12.14384
       O    16.19352   -3.56772  -12.60757
      H1    15.24317   -3.63318  -12.92937
       H    12.38261   -2.80989  -17.95865
       O    12.21472   -3.75755  -17.92260
      H1    11.26071   -3.82015  -18.11476
       H    12.45569    1.31544  -11.99153
       O    13.24475    0.94144  -12.44738
      H1    13.35648    0.19248  -11.82435
       H     9.13028   -4.64058  -16.20900
       O     8.40863   -4.16803  -16.71779
      H1     7.68602   -4.24327  -16.09267
       H    14.82022    2.94527  -16.03175
       O    15.33682    2.48923  -15.39417
      H1    14.99881    1.55006  -15.45678
       H     5.74871    4.00447  -15.04542
       O     5.21637    3.58393  -15.69979
      H1     4.40470    3.67731  -15.24390
       H    16.92711    5.48298  -16.87953
       O    16.78464    5.88111  -17.79568
      H1    16.33475    6.72686  -17.66490
       H    10.55988    9.20714  -15.54404
       O     9.94401    9.78484  -16.06887
      H1     9.09015    9.52540  -15.64080
       H     9.99772    6.86346  -10.14350
       O     9.62743    6.05891  -10.49215
      H1     9.91021    6.05153  -11.44152
       H    17.59510    1.53159  -18.80713
       O    16.82820    1.90155  -18.37819
      H1    16.57431    2.67963  -18.90179
       H    15.04938    8.29974  -15.23756
       O    15.21979    7.65361  -15.95656
      H1    14.77473    6.90961  -15.50178
       H    11.64805    0.69230  -17.75410
       O    11.59620    1.67647  -17.63974
      H1    11.47481    1.77831  -16.69132
       H    12.92319    9.00380  -18.18490
       O    13.19642    8.07402  -18.15600
      H1    13.83291    8.07447  -17.44367
       H     8.32540   -6.26024  -18.72962
       O     8.61349   -5.72497  -19.47556
      H1     8.46712   -4.83659  -19.13993
       H    10.63800    4.87685  -13.51320
       O    11.06492    4.08943  -13.82111
      H1    11.43317    3.61343  -13.04597
       H    12.06270    1.00978  -14.08943
       O    11.51417    1.28345  -14.82112
      H1    11.28952    2.21698  -14.57514
       H     6.58979    2.54753  -16.65694
       O     7.28525    1.88178  -16.82498
      H1     7.17297    1.40317  -16.00293
       H    12.93553   -1.93937  -14.16158
       O    12.59201   -1.46958  -14.95039
      H1    13.27545   -0.81319  -15.22651
       H    15.25729   -0.92669  -16.44159
       O    14.81668   -0.09724  -16.21857
      H1    14.96909    0.45211  -16.97555
       H     7.18855    2.06556  -10.42552
       O     7.58446    1.22682  -10.74452
      H1     6.90941    0.66109  -10.37335
       H     5.80668   -3.33004  -14.76325
       O     6.59401   -3.92789  -14.66469
      H1     7.26177   -3.24634  -14.33969
       H    18.55361    1.92141  -15.66123
       O    18.23477    2.80444  -15.49461
      H1    17.29383    2.63776  -15.47571
       H    13.08959    5.71103  -10.11791
       O    13.21961    5.21150  -10.92398
      H1    13.74772    5.68811  -11.58640
       H    18.60880    4.31571  -14.64047
       O    18.82773    4.95155  -13.92929
      H1    18.52782    5.76908  -14.37450
       H    14.27616    4.17366   -9.83780
       O    14.63606    3.68181   -9.04717
      H1    14.88202    2.85278   -9.46713
       H     4.07783   -0.75740  -17.59220
       O     4.56748   -1.57307  -17.42589
      H1     4.56597   -1.96507  -18.31635
       H    12.55190   -6.37963  -19.34643
       O    13.27636   -5.76169  -19.29259
      H1    12.91368   -4.94678  -18.79791
       H    17.59384    1.22851  -12.64138
       O    17.38233    0.67072  -13.41004
      H1    17.69027    1.22021  -14.14915
       H    15.23384    3.01254  -13.78689
       O    14.93126    3.33370  -12.89517
      H1    14.52832    2.63961  -12.36286
       H     9.02895   -0.91047  -16.01114
       O     8.96211   -1.30969  -16.89544
      H1     8.63396   -2.25223  -16.84031
       H    11.76333    5.61662  -18.94036
       O    11.64080    5.94113  -19.86757
      H1    12.50371    6.42422  -20.06758

