180
frame 5 | Written by MDAnalysis XYZWriter (release 2.4.3)
       H     3.25593  -11.78682   17.64161
       O     3.65524  -10.86438   17.74583
      H1     3.66395  -10.78429   18.72616
       H    -0.17223  -13.64556   17.89054
       O     0.62832  -13.14900   18.13420
      H1     0.52308  -12.26766   17.70227
       H     4.63812  -10.24007   12.39428
       O     3.81603   -9.85505   12.10696
      H1     3.20554  -10.38203   12.63699
       H    -1.84295   -6.74636   16.97256
       O    -1.04788   -6.14879   17.04054
      H1    -1.20341   -5.40102   16.42754
       H     2.36726   -8.63213   10.29219
       O     1.42527   -8.47688   10.59362
      H1     1.09826   -9.36730   10.85913
       H    -8.27668  -10.96917   15.05832
       O    -7.58847  -10.55110   15.64542
      H1    -6.87836  -10.53188   14.98330
       H    -6.92468   -5.28983   14.66442
       O    -6.37176   -4.79441   14.00439
      H1    -6.50264   -3.82518   14.27502
       H    -5.56065  -14.08933   12.53320
       O    -4.94654  -14.63009   13.00288
      H1    -5.57190  -15.09726   13.63847
       H    -7.94244   -9.27892   14.30739
       O    -8.26373   -8.59991   13.67803
      H1    -9.18865   -8.77901   13.74954
       H    -5.20474  -10.90549   13.35791
       O    -5.44968  -10.24137   14.05018
      H1    -4.77862   -9.59289   13.95032
       H    -3.36486   -8.17799   16.25134
       O    -3.49082   -7.65398   17.02831
      H1    -4.40816   -7.89943   17.24371
       H    -3.33848  -11.04253   17.40007
       O    -4.02154  -11.30461   16.74644
      H1    -4.21284  -10.48854   16.35027
       H    -6.95391   -5.53980   17.64245
       O    -7.07701   -4.64387   17.96887
      H1    -8.03696   -4.51185   17.93132
       H     0.92307   -6.80295   17.54503
       O     1.80867   -6.59720   17.80166
      H1     2.37798   -7.09436   17.16452
       H    -7.90541   -7.38015   15.31481
       O    -8.00704   -6.43428   15.43924
      H1    -8.65138   -6.28131   14.80351
       H    -6.25392   -8.76987   18.02986
       O    -6.08017   -8.60118   17.06380
      H1    -6.65785   -9.37718   16.78428
       H    -3.69080   -7.69580   10.89140
       O    -4.35275   -8.11303   10.34141
      H1    -5.15431   -8.19964   10.95630
       H    -2.09284   -1.50933   17.79224
       O    -2.24068   -2.46983   17.82743
      H1    -1.73163   -2.86418   17.06814
       H    -2.36430  -12.08245   12.77798
       O    -2.50488  -12.12455   11.81490
      H1    -1.88344  -11.42331   11.61321
       H    -5.13069  -12.50643   17.46818
       O    -5.25084  -13.23544   18.12010
      H1    -5.43783  -14.02228   17.61872
       H    -9.59279   -6.54101   16.40110
       O   -10.46714   -6.32811   16.77689
      H1   -10.83328   -7.17410   17.11714
       H    -0.72918  -10.70737    9.68041
       O    -1.00130  -10.15791   10.43477
      H1    -1.28325   -9.30882   10.06858
       H    -5.61273   -3.49000   17.68568
       O    -5.23526   -2.65974   17.55902
      H1    -4.28121   -2.85908   17.56782
       H     0.72865  -16.83889   16.63015
       O     0.63556  -15.88031   16.75639
      H1    -0.31581  -15.88433   17.01568
       H     3.89932  -13.46999   17.79102
       O     3.14510  -13.54721   17.14268
      H1     2.36007  -13.44904   17.75207
       H    -1.81847  -15.11196   18.65978
       O    -1.48525  -14.69355   17.82576
      H1    -2.27989  -14.56628   17.31176
       H     2.00545  -11.70749   14.16799
       O     2.42358  -11.47177   14.98237
      H1     2.39668  -12.27771   15.44921
       H     1.79168   -6.23844   13.17999
       O     2.17208   -6.21951   12.29958
      H1     1.80710   -7.08510   11.98165
       H    -4.14920  -14.67532   16.22492
       O    -3.34311  -14.19547   15.95313
      H1    -3.61431  -13.41599   16.51930
       H     2.15179   -9.72321   15.74748
       O     2.04526   -8.80930   16.00113
      H1     2.55842   -8.32049   15.35497
       H     4.76708   -8.95293   15.54272
       O     5.53302   -9.30322   16.06787
      H1     5.03216   -9.73867   16.77327
       H     3.68197   -7.19230   13.25915
       O     3.84857   -7.75849   14.04870
      H1     4.02295   -8.52011   13.51345
       H     0.98414   -9.31633   19.82529
       O     0.62607   -8.41829   19.74392
      H1     1.23624   -8.01264   19.11763
       H     2.01451  -16.47536   20.01947
       O     1.10723  -16.60357   19.71004
      H1     1.17107  -16.42690   18.73918
       H     0.10783  -14.36994   15.68570
       O     0.03302  -13.68802   14.99134
      H1    -0.43767  -14.15126   14.28395
       H     5.54820  -14.15367   19.78538
       O     4.97906  -13.58791   19.25737
      H1     4.95316  -12.81546   19.88684
       H     1.59674  -11.46316   11.24199
       O     1.10642  -11.33639   12.12068
      H1     0.74055  -12.25528   12.27536
       H    -9.91238  -11.34198   17.68627
       O    -9.74721  -12.24642   17.38255
      H1    -9.19637  -12.55335   18.10678
       H    -2.53598   -9.26569   18.40706
       O    -2.36724  -10.22243   18.43979
      H1    -1.60619  -10.25916   17.79445
       H    -3.00172  -15.41799   12.65723
       O    -2.45411  -15.64218   13.48189
      H1    -2.95822  -15.12421   14.12696
       H    -8.23647  -13.52971   19.70161
       O    -7.93419  -12.69638   19.28332
      H1    -7.09474  -12.98481   18.85196
       H    -0.55592   -3.07238   14.87496
       O    -0.51227   -3.63475   15.68414
      H1     0.43673   -3.76126   15.80291
       H    -0.25935   -6.52108   14.18397
       O    -0.89336   -6.79377   13.49580
      H1    -1.38447   -5.98380   13.29957
       H    -2.41069  -11.63219   15.07524
       O    -1.70535  -11.44138   14.48319
      H1    -1.11756  -12.13435   14.48642
       H    -8.95024   -8.64824   19.80587
       O    -9.01068   -9.54135   19.54216
      H1    -8.04224   -9.61204   19.22803
       H     1.83240   -5.82924   16.19698
       O     1.85860   -5.52053   15.25242
      H1     2.66123   -5.04165   15.21360
       H     5.83531  -12.08189   18.38223
       O     6.54111  -11.59847   17.87370
      H1     7.27613  -12.16455   18.02725
       H    -2.17127   -9.37392   13.87316
       O    -2.71062   -8.73320   14.32881
      H1    -2.27626   -7.89441   14.29617
       H    -0.24009  -10.95111   16.16611
       O    -0.02681  -10.73438   17.11842
      H1     0.58181   -9.99269   16.87176
       H    -4.20268   -5.13812   19.95323
       O    -4.23241   -5.36692   18.99355
      H1    -3.60024   -6.14201   18.93731
       H     4.39742  -15.89441   16.53827
       O     3.50961  -16.31609   16.93338
      H1     3.00447  -15.48860   16.84703
       H    -4.18661   -6.07032   13.48432
       O    -4.27714   -6.73800   12.79648
      H1    -4.74659   -6.04740   12.23109
       H     4.28551  -12.16650   15.23725
       O     5.21748  -12.42790   15.32539
      H1     5.47027  -11.81976   15.98417
       H     2.67249   -5.06798   18.20782
       O     2.78519   -4.17540   18.58144
      H1     3.67080   -3.89007   18.47883
       H    -2.54707  -18.50308   19.84280
       O    -3.05270  -19.12041   19.33070
      H1    -2.64271  -19.97939   19.49386
       H    -5.92063  -16.21471   16.52030
       O    -5.14840  -15.83060   17.02011
      H1    -5.21065  -16.31111   17.82228
       H    -0.96441  -13.49606   11.78274
       O    -0.10099  -13.91216   11.96267
      H1     0.10221  -14.48748   11.23829
       H    -5.02791  -10.46946   10.47613
       O    -4.89685  -11.25143   11.05756
      H1    -3.90947  -11.27788   11.22626
       H    -1.00937   -6.93144   10.25539
       O    -1.75068   -7.20183   10.83281
      H1    -1.34227   -7.26557   11.74054
       H    -4.30568   -6.16735   15.74143
       O    -3.98798   -5.38665   15.23589
      H1    -4.94001   -5.23967   14.88726

