180
frame 1 | Written by MDAnalysis XYZWriter (release 2.4.3)
       H   -17.64870   -7.85116   -3.07822
       O   -17.01435   -7.14968   -3.24150
      H1   -16.24760   -7.74057   -3.49080
       H   -14.69875   -3.57430   -3.46350
       O   -15.41750   -3.01116   -3.04272
      H1   -15.23323   -3.25694   -2.08726
       H   -12.69587   -8.69956   -1.78806
       O   -12.43216   -9.30505   -2.52100
      H1   -11.48194   -9.26536   -2.45427
       H   -10.49041   -3.81031   -4.65480
       O   -11.10123   -4.57116   -4.66013
      H1   -10.49371   -5.19012   -4.15269
       H   -14.59620  -13.12053   -8.57003
       O   -15.45025  -13.09797   -8.09689
      H1   -15.45185  -14.08046   -7.95800
       H   -11.39349   -8.56040  -11.66827
       O   -11.60474   -9.26809  -12.28163
      H1   -12.46867   -9.49039  -11.95145
       H   -10.35342   -8.22974   -9.44704
       O   -10.90103   -7.57162   -9.02905
      H1   -11.17919   -6.99012   -9.77879
       H   -12.82338   -4.06287   -8.64056
       O   -12.59284   -3.22314   -8.98520
      H1   -12.76958   -2.57429   -8.28966
       H   -11.09272   -6.47511  -12.47072
       O   -11.60044   -6.52460  -11.61187
      H1   -12.57099   -6.60972  -11.88471
       H   -12.75671  -12.46270   -8.93167
       O   -12.99182  -13.39583   -9.20693
      H1   -12.28593  -13.94264   -8.81470
       H   -14.69012   -4.79867   -7.55742
       O   -14.97667   -4.52966   -6.64351
      H1   -15.17878   -3.64372   -6.82368
       H   -19.50673  -11.72539   -7.02987
       O   -18.64383  -11.56167   -6.54681
      H1   -18.18651  -12.41750   -6.71781
       H    -9.92565   -6.83599   -8.06001
       O    -9.30704   -6.46442   -7.34743
      H1    -9.74335   -6.80240   -6.52919
       H   -16.54779   -7.05097   -9.34844
       O   -16.43834   -7.52242  -10.17491
      H1   -16.45187   -8.50508   -9.98142
       H   -17.90857   -9.01119   -4.83829
       O   -18.76392   -8.97272   -4.30848
      H1   -19.37806   -9.44633   -4.88038
       H   -11.26174   -3.80798  -10.09309
       O   -10.76112   -3.98450  -10.87403
      H1   -11.05811   -4.88821  -11.25165
       H    -9.23723   -9.65039   -8.45029
       O    -9.74987   -9.92036   -7.67925
      H1    -9.17426  -10.69083   -7.42304
       H   -16.39602   -5.66666   -7.11615
       O   -16.90706   -6.22448   -7.78651
      H1   -17.66252   -6.44602   -7.24998
       H   -17.27628   -2.13603   -6.34856
       O   -17.92351   -2.33524   -5.65535
      H1   -17.44407   -3.03929   -5.16940
       H   -13.32553   -6.74332   -4.57049
       O   -13.23044   -7.63756   -4.93219
      H1   -13.49937   -8.23879   -4.24702
       H   -16.08774  -12.56313  -12.96490
       O   -15.66649  -12.97442  -12.15503
      H1   -14.74824  -13.21146  -12.41044
       H   -18.04858   -3.77729  -11.74144
       O   -18.02847   -3.70514  -10.76207
      H1   -18.00658   -4.69301  -10.62310
       H    -8.49947  -14.24247   -7.34098
       O    -9.26480  -14.44471   -6.81244
      H1    -9.66912  -13.60827   -6.59356
       H   -10.10232  -12.66981  -13.14825
       O   -10.58754  -11.90616  -13.54745
      H1   -10.59794  -11.23567  -12.86634
       H   -16.34833   -9.61480  -12.73465
       O   -15.49871   -9.11094  -12.89765
      H1   -15.49862   -8.35933  -12.23087
       H   -15.58152  -10.73426   -9.76828
       O   -15.97078  -10.01078   -9.24561
      H1   -15.13426   -9.72351   -8.83289
       H   -12.81463  -10.93699   -7.46332
       O   -12.21602  -10.97582   -8.25596
      H1   -11.37091  -10.53367   -8.08078
       H   -14.56174  -11.66188  -11.41815
       O   -14.03105  -10.89407  -11.37024
      H1   -14.64246  -10.16245  -11.71802
       H   -16.12788   -1.79598   -8.66958
       O   -16.15539   -2.01251   -7.71807
      H1   -15.79071   -1.23611   -7.37183
       H    -9.47913   -8.53980   -2.45696
       O    -9.31175   -9.39687   -2.92215
      H1    -9.61012   -9.27977   -3.84738
       H   -18.74697  -11.91016   -9.73021
       O   -19.23479  -11.12669  -10.07153
      H1   -19.19817  -10.40408   -9.41160
       H   -11.15725  -12.86087   -5.51299
       O   -10.48708  -12.29917   -5.92512
      H1   -11.02118  -11.87034   -6.58018
       H   -19.76663   -8.59502   -7.58840
       O   -19.54338   -8.63706   -8.57417
      H1   -19.07359   -7.83879   -8.68542
       H   -17.92631  -14.00518   -8.61776
       O   -17.75065  -13.26075   -9.21345
      H1   -16.91227  -12.95541   -8.74545
       H   -12.69583   -8.72258  -14.08083
       O   -12.57546   -8.48024  -15.02092
      H1   -11.59844   -8.69145  -15.12910
       H   -13.33018   -1.69899  -11.95883
       O   -13.94933   -2.10324  -11.31299
      H1   -13.37313   -2.48544  -10.65491
       H   -11.49425   -7.81302   -5.36386
       O   -10.58157   -8.07762   -5.36442
      H1   -10.45148   -8.61200   -6.15241
       H   -13.10177  -13.71424  -11.13012
       O   -13.07972  -14.01171  -12.08796
      H1   -13.55693  -14.81855  -12.06342
       H    -7.21711   -4.94817   -9.01079
       O    -6.91439   -5.08133   -8.10141
      H1    -7.70647   -5.45562   -7.73073
       H   -10.97352   -6.66063   -2.50295
       O   -10.06754   -6.47322   -2.75697
      H1    -9.66873   -6.48002   -1.81406
       H   -12.54672   -1.99247   -5.81088
       O   -12.59755   -1.50812   -6.68415
      H1   -11.72674   -1.19092   -6.84713
       H   -14.95078   -3.48066  -12.15722
       O   -15.13260   -4.31033  -12.64870
      H1   -15.29779   -3.92759  -13.49474
       H    -8.79604   -9.89546  -10.87094
       O    -8.90674   -8.99387  -10.54824
      H1    -7.92253   -8.69160  -10.63367
       H   -11.03985  -12.46770  -10.58338
       O   -10.14296  -12.78569  -10.46583
      H1    -9.57823  -12.02959  -10.65336
       H   -19.63546   -6.12416   -6.14787
       O   -19.07935   -6.90765   -6.29671
      H1   -19.12821   -7.40040   -5.45580
       H   -18.47545  -10.68398  -13.18062
       O   -18.00063  -10.30136  -12.45347
      H1   -18.42428  -10.78110  -11.72880
       H   -14.16838   -4.80433   -4.98563
       O   -13.80743   -5.06135   -4.12848
      H1   -12.91741   -4.78294   -4.19683
       H   -13.71817   -7.60825   -6.74691
       O   -13.81809   -8.16311   -7.56173
      H1   -12.87135   -8.34551   -7.74399
       H   -13.08417   -6.40351   -2.38837
       O   -12.57050   -6.59886   -1.62245
      H1   -12.75192   -5.87745   -0.97475
       H   -15.65477  -12.29630   -3.35020
       O   -15.27074  -11.63304   -2.76078
      H1   -14.37188  -11.62599   -3.10880
       H   -14.83909  -10.52598   -6.44021
       O   -14.09293  -10.84439   -5.97580
      H1   -14.14754  -10.16465   -5.24835
       H   -17.41703  -10.43580   -6.50703
       O   -16.83181   -9.68260   -6.51688
      H1   -17.07026   -9.03519   -7.18036
       H    -8.37896   -3.30125   -4.88705
       O    -8.08212   -4.14815   -5.29060
      H1    -8.79508   -4.38719   -5.87721
       H    -8.25410   -6.51513   -3.81910
       O    -7.39859   -6.50733   -4.30662
      H1    -7.35932   -5.61754   -4.71149
       H   -17.40411   -5.34396   -3.54356
       O   -17.64362   -4.45088   -3.81394
      H1   -16.93839   -3.95088   -3.37125
       H   -14.20096   -6.17169   -9.86961
       O   -13.88156   -5.69355   -9.06094
      H1   -14.09642   -6.42931   -8.45168
       H   -15.50857   -9.96407   -3.51882
       O   -15.42629   -9.19665   -4.06581
      H1   -15.92550   -9.38621   -4.82527
       H   -15.16171   -6.96885  -11.08949
       O   -14.39404   -6.77923  -11.64915
      H1   -14.72974   -5.96528  -12.07704
       H   -16.43590  -13.96207   -5.49404
       O   -15.85845  -13.56082   -4.81962
      H1   -15.37210  -12.98477   -5.41557
       H   -19.47942   -6.58101  -11.00502
       O   -18.88292   -6.43629  -10.26776
      H1   -18.04879   -6.74263  -10.58209

