180
frame 7 | Written by MDAnalysis XYZWriter (release 2.4.3)
       H    18.16067   18.01929  -16.92778
       O    18.92412   17.41765  -17.20632
      H1    18.95321   17.35050  -18.19109
       H     8.77381    8.58170  -12.82964
       O     9.78615    8.57785  -12.96910
      H1    10.09163    8.22604  -12.08567
       H    13.00906    9.03858  -13.98269
       O    12.56465    9.89548  -14.09692
      H1    13.22779   10.55334  -13.72636
       H    13.43087   11.94143  -17.28076
       O    14.26832   12.50015  -17.38603
      H1    14.64001   12.36444  -16.46952
       H    16.98962   14.54982  -16.34872
       O    16.85936   14.66504  -15.37103
      H1    16.20570   14.01464  -15.13962
       H     8.85196   13.48399  -12.01382
       O     8.39274   13.90910  -12.72539
      H1     7.52918   13.41652  -12.73292
       H     8.33786   17.21842  -17.45267
       O     7.95297   17.88976  -17.97793
      H1     8.70905   18.33016  -18.39344
       H     6.56605   16.32485  -12.86649
       O     6.56106   16.53987  -13.77156
      H1     6.64794   17.50724  -13.78402
       H    13.43656   11.18880  -11.77519
       O    13.82527   11.91818  -12.31631
      H1    13.49978   12.70171  -11.91021
       H    15.70718   11.63081  -11.86270
       O    16.63688   11.46570  -11.82637
      H1    16.97880   12.12392  -11.20680
       H    15.59158   15.47778   -8.95326
       O    15.98031   14.75144   -8.45636
      H1    16.48579   14.11858   -8.98104
       H     5.90184   15.70427  -15.36397
       O     6.03958   14.84449  -15.81467
      H1     5.27718   14.69486  -16.36595
       H    16.85603   16.23754  -14.70966
       O    16.36667   16.99921  -14.34025
      H1    15.43545   16.68897  -14.61379
       H     8.79611   19.40763  -14.76933
       O     8.79858   19.30903  -13.83733
      H1     9.74585   19.28671  -13.57265
       H    12.72363   17.97418  -10.22748
       O    12.08379   17.27419   -9.96219
      H1    12.24807   16.52403  -10.55555
       H    13.47432    7.57877  -17.07163
       O    14.10505    7.84084  -17.76090
      H1    14.42291    7.00637  -18.13903
       H    10.10522   12.34045  -10.24906
       O    10.26996   12.96122  -10.95193
      H1    10.47469   12.36551  -11.72575
       H    12.11705    9.64614  -10.88118
       O    13.00133    9.97941  -10.68280
      H1    12.97213   10.53676   -9.90794
       H    19.41391   11.64650  -15.44806
       O    19.74010   11.56859  -14.53512
      H1    19.52014   10.62448  -14.40419
       H     8.96409   17.29978  -13.78038
       O     9.53631   16.54044  -13.69455
      H1     9.01480   15.85287  -13.17607
       H     9.82491   15.51354   -9.13087
       O     9.27870   16.02768   -9.76191
      H1     9.77313   16.28498  -10.57160
       H    18.37808   17.70407  -11.26632
       O    17.49914   18.03731  -10.91449
      H1    16.80331   17.42776  -11.31014
       H     7.55903    8.45086  -17.48602
       O     8.40313    8.93962  -17.46755
      H1     8.85875    8.70650  -18.34013
       H    17.17479   10.69425  -16.77465
       O    17.36376   11.60149  -16.46818
      H1    17.10073   12.11725  -17.18798
       H    10.89896    6.66658  -16.21396
       O    11.55736    6.18286  -16.75258
      H1    11.84224    5.35274  -16.38604
       H    14.47050    7.10014  -12.53950
       O    13.59330    7.41293  -12.75659
      H1    12.97302    7.14459  -12.08793
       H     7.49975   16.24239  -10.66153
       O     6.82474   15.79166  -11.16650
      H1     7.23992   15.10625  -11.67212
       H     5.37762   13.60235  -13.66921
       O     5.84724   13.01926  -13.04523
      H1     5.42547   13.27067  -12.16830
       H    16.39955    7.79541  -15.50992
       O    15.84644    8.59225  -15.35496
      H1    15.29906    8.68906  -16.13286
       H     9.44310   15.98365  -15.79557
       O     8.90159   15.80343  -16.51909
      H1     8.23137   15.10437  -16.29483
       H    18.27063    9.33457  -18.87559
       O    18.63922    9.34061  -18.00248
      H1    19.50860    9.74984  -18.03747
       H    15.50951   19.18809  -16.22437
       O    14.56640   19.01504  -16.51351
      H1    14.49290   19.02360  -17.45660
       H    16.23330   12.00770  -15.04433
       O    15.40280   12.43108  -14.71516
      H1    15.28024   12.00426  -13.90167
       H    11.13683   14.87435  -18.26514
       O    10.28942   14.84129  -18.69289
      H1     9.69745   15.29092  -18.07578
       H     6.65635   14.42791  -17.52807
       O     6.91236   14.17435  -18.42436
      H1     7.57290   13.45870  -18.25724
       H     9.52772   13.37795  -17.61107
       O     8.93374   12.59427  -17.52216
      H1     9.02970   12.31457  -16.63493
       H    10.09607    5.96773  -19.56916
       O     9.71532    6.14738  -18.69740
      H1    10.49580    6.29388  -18.16597
       H    13.12761   13.81670  -17.10413
       O    12.63527   14.62049  -17.22402
      H1    13.15796   15.13921  -17.86412
       H    12.87744   16.61691  -13.86701
       O    12.21250   16.76304  -13.21360
      H1    11.33068   16.84354  -13.66415
       H    17.58663   12.42182   -9.09693
       O    17.57430   13.14441   -9.79426
      H1    18.37724   13.68626   -9.89713
       H    10.46910   11.22406  -18.65907
       O    10.37332   10.36889  -19.13301
      H1    11.01169   10.39427  -19.86070
       H    16.96640   18.25327  -15.33514
       O    17.18293   18.96516  -15.95903
      H1    17.63078   19.64884  -15.43223
       H    12.13060   20.28171  -18.81702
       O    12.10607   19.38772  -18.47162
      H1    12.06913   18.80359  -19.31892
       H    16.57503    7.88608  -12.01488
       O    16.36073    7.19772  -12.61429
      H1    16.26975    7.54783  -13.48489
       H    11.03213   10.85976  -13.73399
       O    10.29782   11.13778  -13.17089
      H1    10.13812   10.28049  -12.77531
       H    14.12710   17.24222   -8.96667
       O    14.96316   17.28372   -9.41244
      H1    15.60468   17.79537   -8.95078
       H    11.65046   19.81352  -14.56423
       O    11.65661   19.62955  -13.58657
      H1    12.06700   18.74275  -13.51488
       H     9.08324    7.94629  -16.10841
       O     9.41470    7.22511  -15.57672
      H1     9.65559    7.55948  -14.72891
       H     7.24572   11.08390  -11.04716
       O     7.12021   10.76984  -11.93174
      H1     6.58438   11.51982  -12.25537
       H     5.99862   12.48043  -18.77177
       O     5.53960   11.63217  -18.85832
      H1     6.12488   11.07842  -19.32933
       H    15.82340    8.72853  -10.13993
       O    16.64806    9.12903  -10.48491
      H1    16.49338    9.94719  -11.03090
       H    13.81829   11.98503  -18.89724
       O    13.67935   11.85145  -19.85322
      H1    14.40469   11.30437  -20.18236
       H     6.61007   17.51358  -19.03913
       O     5.88823   17.38047  -19.71548
      H1     5.50895   16.45629  -19.59314
       H     6.48796   11.02075  -15.36176
       O     5.75461   10.44595  -15.11857
      H1     5.85812   10.32166  -14.11302
       H    11.54838   14.25626  -11.03769
       O    12.32666   14.76578  -11.29635
      H1    12.04650   15.12403  -12.18397
       H    13.71900   17.20284  -16.12184
       O    13.60176   16.57592  -15.39885
      H1    13.29412   15.85644  -15.94186
       H    11.53166   10.28229  -17.51896
       O    12.20127   10.79540  -17.02550
      H1    12.26482   10.30337  -16.20769
       H     9.17315   10.96197  -14.57840
       O     8.72331   11.08075  -15.44840
      H1     8.78112   10.19948  -15.91762
       H    18.10347    9.15692  -14.75773
       O    19.04999    9.01246  -14.75290
      H1    19.26304    9.10517  -15.67300
       H    16.14195   14.12748  -18.82212
       O    16.90372   13.82569  -18.27989
      H1    17.64710   14.38817  -18.55289

