180
frame 1 | Written by MDAnalysis XYZWriter (release 2.4.3)
       H     4.00923  -11.14532   10.69982
       O     3.23629  -10.68937   11.11292
      H1     2.91646  -11.19543   11.84868
       H    -6.52775  -13.01674    8.28301
       O    -5.95719  -13.63173    7.82993
      H1    -5.00463  -13.40758    8.03651
       H    -1.06951  -14.00421    1.37194
       O    -2.06735  -14.04384    1.45644
      H1    -2.20953  -13.41884    2.15807
       H    -0.07843   -8.17712    9.46247
       O    -0.12254   -8.89063   10.12291
      H1     0.37613   -9.60917    9.71312
       H     2.11650  -14.65508    7.27897
       O     1.22147  -14.29188    7.15669
      H1     1.24750  -14.01177    6.21989
       H    -3.24311  -11.78144    6.55058
       O    -3.57135  -11.13512    5.91392
      H1    -2.97255  -10.39892    5.90478
       H    -0.77262  -15.67040    8.58047
       O    -0.97113  -15.87743    7.69339
      H1    -0.38348  -15.30641    7.21211
       H     5.02025  -10.77386    7.44684
       O     4.32971  -11.15074    7.96451
      H1     3.59511  -10.55604    7.90042
       H     0.56853  -18.29819   10.29033
       O     0.12042  -17.88186   11.04183
      H1    -0.17079  -18.65342   11.54200
       H    -0.48727  -17.43236    7.38425
       O    -0.22986  -18.29282    6.91280
      H1    -0.50646  -18.14403    5.97046
       H    -2.61797   -7.72115    5.96663
       O    -2.71630   -7.90130    5.04345
      H1    -2.13911   -7.23860    4.59539
       H     1.54424  -17.56388   12.64098
       O     1.72055  -18.10658   13.45095
      H1     0.93355  -18.68704   13.36270
       H     6.61561   -9.92923    6.08043
       O     6.12754  -10.68733    5.80209
      H1     6.74966  -11.39787    5.85256
       H     1.52476  -12.21157    1.78072
       O     0.72827  -12.41866    2.30919
      H1     0.03435  -11.88783    1.89319
       H    -1.61474   -9.85120    3.79683
       O    -1.38361   -9.33197    3.04649
      H1    -2.14824   -8.76739    2.93106
       H    -0.92155   -6.66467    6.73885
       O    -1.72202   -6.61326    7.30994
      H1    -2.17615   -5.78897    7.07946
       H    -4.31460  -16.68994   10.76221
       O    -3.65260  -16.62669   10.05263
      H1    -3.46089  -17.53944    9.83907
       H     4.24626  -10.13650    5.07990
       O     3.43236   -9.86949    4.63047
      H1     3.44444  -10.53852    3.89966
       H     1.25769   -9.03821    7.49003
       O     0.68478   -8.44193    6.90375
      H1     1.01526   -8.68176    6.02408
       H    -1.92182  -18.85604    7.71575
       O    -2.64324  -18.62879    8.37191
      H1    -3.36122  -19.26229    8.01979
       H     5.64559  -11.54938   11.78685
       O     6.01758  -11.71875   10.91442
      H1     5.54071  -12.44978   10.59050
       H     5.59645   -7.03607    9.48513
       O     4.77451   -7.32062    9.86740
      H1     4.59040   -6.55599   10.45575
       H    -4.75326   -9.49305    8.41016
       O    -5.74515   -9.57789    8.29690
      H1    -5.95047  -10.38349    8.78567
       H    -3.98768  -11.52627   12.23399
       O    -3.57483  -11.81452   11.44178
      H1    -3.24626  -10.97335   11.12078
       H     4.43785  -17.61762    7.89972
       O     3.84721  -17.58568    8.65576
      H1     4.51591  -17.67262    9.36444
       H     3.22594  -17.89467    4.79809
       O     3.06409  -17.03297    4.45274
      H1     3.33905  -16.47322    5.21726
       H    -2.81659  -10.24989    8.00611
       O    -3.06683   -9.92019    8.91842
      H1    -2.35302   -9.28075    9.06752
       H     3.13142  -10.49624    1.77999
       O     3.27883  -11.39787    2.12869
      H1     3.40677  -11.88024    1.30318
       H    -0.56317  -11.16305    7.30131
       O    -1.11439  -10.44570    6.95478
      H1    -0.47399   -9.74862    6.94607
       H    -2.47708  -13.06644    8.44483
       O    -3.13006  -13.02958    7.72699
      H1    -3.11450  -13.96075    7.42861
       H    -1.20950  -13.77662   10.34265
       O    -1.44798  -12.87102   10.00943
      H1    -2.19522  -12.67714   10.60362
       H    -2.10765  -15.87234   10.33855
       O    -1.17133  -15.70346   10.50532
      H1    -0.84292  -16.61716   10.66266
       H     6.96919  -13.32771    7.31583
       O     7.84645  -13.12262    7.01709
      H1     8.23239  -14.02911    6.71800
       H     1.64840  -11.52818   13.23779
       O     2.44632  -11.67169   13.75433
      H1     2.27224  -12.48757   14.20909
       H     0.53742   -6.99498   12.64478
       O     1.10668   -6.99474   11.83978
      H1     0.87621   -7.86562   11.49190
       H    -0.52443  -13.91955    4.82311
       O    -0.02817  -13.09995    4.88263
      H1     0.43215  -12.88422    4.03521
       H     3.51873   -7.76656   13.52723
       O     3.64228   -8.73799   13.35875
      H1     3.18240   -8.89837   12.52375
       H     0.84490  -14.81983   14.73916
       O     0.95660  -14.29775   13.95228
      H1     0.04370  -14.33375   13.54578
       H     2.29021   -5.46830    7.96496
       O     1.43767   -5.93548    7.95696
      H1     1.51642   -6.77461    7.43725
       H     5.13390  -14.94113   10.65129
       O     4.44427  -14.43168   10.25239
      H1     3.72258  -14.96489   10.64704
       H    -0.30844  -10.04308   11.95423
       O     0.14024  -10.80172   12.39320
      H1    -0.40353  -11.54631   12.43487
       H     5.41890  -13.97626    3.41010
       O     6.05644  -13.90285    2.74241
      H1     6.06977  -14.82470    2.44089
       H    -0.22321   -5.72451    9.50151
       O    -1.00822   -6.16079    9.74526
      H1    -1.40285   -6.15248    8.79603
       H    -2.74677  -15.98649    7.30262
       O    -3.46237  -15.61415    6.75254
      H1    -3.06402  -15.55546    5.85225
       H    -3.03619  -12.17784   14.99872
       O    -2.45175  -12.08854   14.21534
      H1    -2.24583  -13.02330   14.00571
       H     2.45557  -19.01631    9.03906
       O     1.58368  -19.40321    8.81649
      H1     1.37087  -19.02980    7.92005
       H     3.33090   -6.71053    3.87600
       O     3.33759   -7.56261    3.45270
      H1     3.37375   -8.35732    4.09887
       H     3.44858  -16.10764    7.46484
       O     3.53730  -15.75265    6.58471
      H1     4.28097  -15.14293    6.70704
       H     0.26776   -8.90308    3.52940
       O     0.86167   -8.36221    4.10716
      H1     1.61010   -8.10404    3.57163
       H    -5.20728  -11.94324    5.76064
       O    -5.98121  -12.41798    5.41812
      H1    -6.10426  -13.12134    6.12116
       H    -0.04238  -12.04627    9.10948
       O     0.69008  -11.78273    8.52340
      H1     0.82005  -12.57200    7.98716
       H    -3.62337  -12.20179    4.14269
       O    -3.47087  -12.62479    3.29108
      H1    -4.24392  -13.24085    3.32698
       H     1.89251  -15.12693   12.71411
       O     2.37641  -15.57613   12.01941
      H1     3.29498  -15.32438   12.26370
       H     4.13690  -11.49293   13.73295
       O     5.06920  -11.56385   13.46264
      H1     5.43834  -10.76484   13.93535
       H    -2.07773  -16.21417    3.87421
       O    -1.75256  -15.37728    4.20149
      H1    -2.14997  -14.75619    3.57649
       H     5.03001  -14.14850    8.65209
       O     5.23600  -13.71171    7.77995
      H1     4.78238  -12.88106    7.91021
       H    -1.90428  -15.17350   13.53171
       O    -1.43984  -14.49244   13.01285
      H1    -1.46312  -14.91488   12.10897
       H    -4.97412  -11.43611   10.54277
       O    -5.93701  -11.29733   10.20767
      H1    -6.15947  -10.55120   10.80081
       H    -2.05236   -7.29598   10.88718
       O    -2.62913   -7.59658   11.60260
      H1    -2.68123   -6.88006   12.24904
       H     2.45723   -9.76855    9.50819
       O     2.51188   -9.15911    8.73927
      H1     3.09580   -8.42114    9.07782

