180
frame 4 | Written by MDAnalysis XYZWriter (release 2.4.3)
       H     4.40701    7.40714  -13.67691
       O     4.84670    7.81666  -12.90045
      H1     4.29613    8.54227  -12.54374
       H     7.70330   10.72300   -9.43039
       O     7.07675   11.41357   -9.38452
      H1     6.87627   11.37482   -8.40152
       H     7.85014   13.16276   -9.18816
       O     8.47946   13.89886   -9.06928
      H1     7.84987   14.58105   -8.85024
       H     1.02020    4.20808   -9.41894
       O     0.38505    4.54010   -8.71651
      H1    -0.22440    5.10461   -9.28239
       H     2.68914   10.72590  -12.33374
       O     3.54828   10.30195  -12.19826
      H1     3.67975   10.38949  -11.22344
       H     5.37426    0.41657   -4.28150
       O     5.49257    0.41707   -5.25167
      H1     5.86177   -0.47871   -5.42474
       H     6.33829    3.72692   -4.83740
       O     6.79590    3.77127   -3.94673
      H1     6.73326    2.85072   -3.62361
       H     5.13655    8.01107   -3.59466
       O     4.89433    7.57887   -4.48850
      H1     4.48053    8.33068   -4.94487
       H     2.06013    1.63284   -9.72225
       O     1.98841    2.45917  -10.20699
      H1     1.48752    2.16336  -11.02018
       H     0.25674    8.47909   -7.82831
       O    -0.19128    8.14236   -7.00310
      H1    -0.32607    8.97311   -6.55619
       H     3.68961    2.84930  -10.52410
       O     4.73034    3.00167  -10.49917
      H1     4.79145    3.89886  -10.88115
       H     3.23934    1.73989  -12.78401
       O     4.12933    1.41128  -12.63941
      H1     4.34421    1.68663  -11.73648
       H    -0.04402    5.09178  -12.47230
       O     0.58866    5.17116  -11.75489
      H1     1.06482    4.31044  -11.97711
       H     7.36120    1.78485  -12.72683
       O     6.99874    1.42765  -13.55510
      H1     6.03235    1.53808  -13.47099
       H     1.61105    8.57894   -9.63738
       O     0.66015    8.43238   -9.52861
      H1     0.57816    7.70465  -10.13757
       H     8.75410    4.15260   -4.39535
       O     9.63888    4.20255   -4.77433
      H1     9.63514    3.51275   -5.47603
       H    11.43063    5.75114   -7.08261
       O    12.07269    5.89370   -7.76925
      H1    12.77099    5.31218   -7.43726
       H    11.23908    7.06054   -4.58329
       O    10.30149    6.84948   -4.64979
      H1    10.25064    5.84863   -4.68497
       H     6.25484    7.33285   -6.71210
       O     5.98830    7.63834   -7.59943
      H1     6.26290    6.88087   -8.12602
       H    10.39717   -0.47017  -10.28883
       O    10.50358    0.31919   -9.76347
      H1     9.84235    0.94734  -10.10385
       H     0.94381   10.25972  -12.52153
       O     0.72975   10.55564  -11.62360
      H1     0.80227    9.79298  -11.04962
       H    12.26598    8.37957   -6.30558
       O    12.28822    8.54824   -7.26066
      H1    12.13379    7.62301   -7.60195
       H     4.14862    6.11854   -2.89503
       O     4.14735    5.92356   -1.94503
      H1     5.05515    5.96469   -1.62387
       H     4.68355   10.69938   -7.42225
       O     5.57785   10.60526   -6.95511
      H1     5.75491    9.67295   -7.20214
       H     9.12940    7.16547  -12.95842
       O    10.05733    6.83184  -12.68279
      H1    10.77805    7.39191  -13.06366
       H     6.79665    7.12181  -15.05764
       O     6.50732    7.60193  -15.86984
      H1     6.95666    7.16500  -16.60630
       H     7.76305    4.96719  -13.72070
       O     7.37350    5.80555  -13.95800
      H1     7.02609    6.04952  -13.10177
       H     6.91854    7.29599   -0.28939
       O     6.64481    6.55284   -0.83075
      H1     7.30646    5.89715   -0.64943
       H     3.84548   11.82662   -9.87714
       O     4.31908   11.00992   -9.70825
      H1     5.27961   11.27643   -9.78162
       H     4.68136   12.03255   -4.10626
       O     5.35626   12.17383   -4.79845
      H1     4.98150   11.79912   -5.58748
       H    11.43916    0.98005   -6.25936
       O    10.51107    1.18184   -5.93429
      H1     9.97481    0.87312   -6.68698
       H     9.89082   10.64154   -5.63487
       O     9.69013   10.79590   -4.63985
      H1     8.88733   11.27384   -4.74548
       H     8.00581    4.76169   -8.78752
       O     7.86241    5.71414   -8.97944
      H1     8.73381    5.89251   -9.37756
       H     5.57618    2.32190   -5.98087
       O     5.85842    3.18797   -6.30359
      H1     5.07615    3.76788   -6.32280
       H     4.26791    7.89799   -9.10058
       O     3.45978    8.39573   -9.18306
      H1     3.86398    9.31813   -9.18525
       H     9.72713    7.77338   -9.67900
       O    10.15580    6.93201   -9.97617
      H1    10.06791    7.00571  -10.95278
       H     9.76849    9.18181   -2.16524
       O    10.18189    9.46258   -1.36849
      H1    10.68799   10.29811   -1.52130
       H     6.85508    8.57617  -13.20655
       O     7.75562    8.59990  -12.89059
      H1     7.73344    8.59458  -11.92081
       H    -0.04760    3.34445   -7.43730
       O    -0.44414    2.75844   -6.82255
      H1    -0.44221    3.17882   -5.99656
       H     9.11770    9.32171   -3.83331
       O     8.66357    8.69284   -3.19482
      H1     8.94523    7.86191   -3.59680
       H     7.02816    8.90013   -2.80449
       O     6.12763    9.12471   -2.48165
      H1     6.30666    9.76222   -1.75988
       H     0.67675    6.41940   -4.75249
       O     1.20639    6.29308   -5.61527
      H1     0.71329    7.00577   -6.12135
       H    10.57326    5.02331  -13.15357
       O    11.05881    4.19161  -13.38918
      H1    11.31881    3.86985  -12.47989
       H    10.84766   13.83373  -10.83273
       O    11.14803   12.88661  -10.75781
      H1    10.31332   12.49690  -10.50430
       H     7.71065    8.77688   -8.53340
       O     8.46349    9.00385   -9.11491
      H1     9.06333    9.40748   -8.51358
       H     8.09984    2.07158  -10.41713
       O     8.18254    1.47571  -11.17696
      H1     7.43036    0.87589  -11.15426
       H     5.53819    6.58229  -11.57458
       O     5.73983    5.72872  -11.08824
      H1     6.64431    5.91651  -10.71888
       H     4.33883    8.95436   -1.06629
       O     3.58886    8.30886   -1.02751
      H1     4.01960    7.47800   -1.35133
       H     8.67830   13.18636   -5.69386
       O     8.08596   13.04480   -4.99481
      H1     7.20038   13.14510   -5.38617
       H    12.72357    5.48059   -9.76463
       O    13.19275    5.01737  -10.46542
      H1    13.14908    5.57086  -11.25815
       H     1.29788    6.87955  -12.30105
       O     1.55055    7.81928  -12.37542
      H1     1.34329    8.02396  -13.27415
       H     4.47931    0.08113   -9.37345
       O     3.56736    0.38460   -9.20917
      H1     3.40865    0.20068   -8.25140
       H     1.19490    7.67325   -3.03024
       O     1.38868    8.48905   -2.47954
      H1     2.16602    8.17997   -1.95130
       H     3.34012   13.47568   -7.65079
       O     3.72562   14.34903   -7.52619
      H1     2.93478   14.89356   -7.72829
       H    11.07682    9.94538   -7.34832
       O    10.24983   10.40416   -7.31643
      H1    10.57581   11.33951   -7.10756
       H     7.00245    2.68072   -8.02661
       O     7.19239    3.01089   -8.88271
      H1     6.28790    3.09741   -9.27184
       H     2.20478   12.10243   -6.32856
       O     2.77891   11.56829   -6.92737
      H1     2.70181   10.63641   -6.54844
       H     2.85133    8.15656   -7.06629
       O     2.77805    8.82852   -6.35596
      H1     2.51310    8.33068   -5.58583
       H     5.26167   10.84934  -12.86365
       O     6.16050   11.28845  -12.96276
      H1     6.48658   10.97804  -13.82642
       H     2.47391    5.39327   -6.80374
       O     3.28368    5.07756   -7.24864
      H1     2.92384    4.83446   -8.11352

