180
frame 5 | Written by MDAnalysis XYZWriter (release 2.4.3)
       H    -1.14978    0.45008  -14.29443
       O    -1.98815    0.20227  -13.86691
      H1    -2.71208    0.73225  -14.26921
       H    -2.27989   -2.87332  -13.82987
       O    -2.76757   -2.44789  -14.54066
      H1    -2.38187   -1.56672  -14.45318
       H    -3.25347    1.70315  -18.16136
       O    -2.30320    1.78980  -17.84949
      H1    -2.03176    0.82686  -17.65614
       H    10.14778   -7.11034  -19.21086
       O    10.99386   -7.58583  -18.99452
      H1    10.69352   -8.50069  -19.07729
       H    -1.18469  -11.10539  -19.15470
       O    -0.80677  -11.32198  -18.28613
      H1    -0.20218  -11.98394  -18.46224
       H     6.84245    0.84475  -19.49220
       O     6.78651   -0.00250  -19.03967
      H1     7.14661    0.13735  -18.18448
       H     2.89358    1.73774  -13.25784
       O     3.79400    1.33640  -13.19626
      H1     4.19041    1.99776  -12.60355
       H     6.83845   -5.61690  -11.31521
       O     7.12620   -4.85660  -11.75563
      H1     6.35833   -4.61829  -12.29559
       H     9.56526   -3.64760  -13.30695
       O     8.81585   -3.00973  -13.27293
      H1     9.09612   -2.33612  -13.81853
       H     6.93656   -8.37237  -18.38380
       O     6.38414   -8.93690  -18.93692
      H1     6.88208   -8.85524  -19.75169
       H    -5.15077   -1.61385  -16.71529
       O    -4.38650   -1.76202  -17.23322
      H1    -4.69579   -1.91284  -18.10996
       H     3.68358   -2.78346  -10.93377
       O     3.59086   -3.36484  -10.15222
      H1     3.50952   -2.64814   -9.47128
       H     6.89173    0.95030  -12.46214
       O     6.82529    0.77250  -13.41063
      H1     5.89697    0.95697  -13.54533
       H     1.13262   -2.98426  -12.37372
       O     0.65849   -2.78074  -11.56510
      H1     1.03607   -3.46012  -11.03297
       H     3.80576   -6.81572  -18.21415
       O     4.11005   -7.71968  -18.08319
      H1     4.82111   -7.80779  -18.73620
       H    11.87077   -1.01429  -16.73608
       O    11.44291   -1.02925  -17.60445
      H1    10.52426   -1.25957  -17.32742
       H     1.89026   -0.93449  -10.25482
       O     1.01574   -0.57782  -10.28933
      H1     0.68892   -1.24992  -10.95762
       H     2.32060    3.65197  -17.95803
       O     1.87492    3.90840  -17.13876
      H1     1.08484    3.34535  -17.04291
       H     2.79702   -4.70832  -10.73553
       O     2.11567   -5.39793  -11.04467
      H1     1.69683   -5.58574  -10.20753
       H     5.27377    1.01778  -18.26903
       O     4.36480    1.35372  -18.39735
      H1     4.00594    1.58166  -17.53436
       H    -0.92639   -7.66573  -13.10888
       O    -0.50400   -6.81156  -12.99161
      H1     0.07136   -7.09783  -12.22201
       H     3.01327   -6.97940  -15.21625
       O     3.94661   -7.20020  -15.42508
      H1     3.86005   -7.23251  -16.36119
       H     2.78949   -7.31480  -12.29989
       O     2.34767   -8.20117  -12.10140
      H1     2.26326   -8.61258  -12.97980
       H     2.03247    0.87652  -15.88940
       O     2.84464    1.45277  -15.88991
      H1     3.15552    1.35788  -14.98636
       H    -1.15463   -4.92533  -16.61630
       O    -1.37915   -4.89823  -15.70578
      H1    -1.84284   -4.04830  -15.61026
       H     3.80375   -0.47809  -12.67478
       O     3.75520   -1.42693  -12.41297
      H1     3.96130   -1.76939  -13.33415
       H     9.86456   -7.48044  -15.57368
       O     9.11632   -7.29254  -15.01095
      H1     9.57124   -6.73800  -14.33388
       H    -1.70337   -1.33691  -17.70176
       O    -1.84391   -0.80306  -16.86740
      H1    -2.77961   -1.06021  -16.78629
       H    -2.95526   -7.96016  -14.09787
       O    -3.60468   -7.24031  -14.21196
      H1    -4.27236   -7.67333  -14.77401
       H     6.16208   -1.78318  -10.44043
       O     5.78172   -0.91562  -10.59572
      H1     5.27870   -1.14588  -11.43010
       H    -0.73388   -3.81966  -12.01389
       O    -1.44740   -4.32928  -12.47574
      H1    -1.12349   -5.23989  -12.74911
       H     0.81098   -7.88980  -16.94574
       O     0.57508   -8.31857  -16.12594
      H1     0.56892   -7.61350  -15.47064
       H    12.38261   -2.80989  -17.95865
       O    12.21472   -3.75755  -17.92260
      H1    11.26071   -3.82015  -18.11476
       H     9.13028   -4.64058  -16.20900
       O     8.40863   -4.16803  -16.71779
      H1     7.68602   -4.24327  -16.09267
       H    -3.21063   -4.68001  -16.51267
       O    -3.74287   -4.39207  -17.29708
      H1    -3.92003   -3.44582  -17.04300
       H     0.31386    0.87802  -19.05245
       O    -0.46773    1.03611  -19.54914
      H1    -1.08096    1.45977  -18.96188
       H     1.71856   -4.94250  -17.77949
       O     2.61736   -4.74900  -17.42446
      H1     2.88394   -4.18289  -18.14462
       H     7.29147   -8.45681  -12.48124
       O     8.22877   -8.36663  -12.33229
      H1     8.44581   -7.81440  -13.12581
       H    -1.86768  -10.14362  -17.14978
       O    -2.11277   -9.31188  -16.77706
      H1    -1.23962   -9.13568  -16.38537
       H    -0.79914   -4.33952  -18.35206
       O    -0.27095   -5.07355  -18.01106
      H1    -0.67383   -5.79907  -18.46377
       H    -2.66162   -3.02866  -18.54482
       O    -1.72851   -2.78471  -18.65234
      H1    -1.63051   -2.80293  -19.64757
       H     6.02448  -10.46456  -17.97488
       O     5.90775  -11.32643  -17.67446
      H1     5.59214  -11.14228  -16.77777
       H     8.52428   -5.58590  -12.61500
       O     9.42910   -5.80043  -12.69111
      H1     9.48451   -6.75216  -12.51107
       H     3.47418   -2.75226  -14.75600
       O     4.41938   -2.51481  -14.86594
      H1     4.41078   -2.18536  -15.78336
       H     8.32540   -6.26024  -18.72962
       O     8.61349   -5.72497  -19.47556
      H1     8.46712   -4.83659  -19.13993
       H     6.58979    2.54753  -16.65694
       O     7.28525    1.88178  -16.82498
      H1     7.17297    1.40317  -16.00293
       H     5.80668   -3.33004  -14.76325
       O     6.59401   -3.92789  -14.66469
      H1     7.26177   -3.24634  -14.33969
       H     8.26256   -7.03737  -16.63403
       O     7.63696   -7.15402  -17.41696
      H1     6.84133   -6.90153  -16.95459
       H     1.65293   -9.55131  -15.16479
       O     1.93626   -9.83802  -14.30295
      H1     1.26255  -10.51356  -14.06611
       H    -2.04896   -8.12624  -18.23442
       O    -1.84375   -7.56720  -18.97617
      H1    -1.06775   -8.01911  -19.31700
       H    -0.64607    3.52867  -15.43917
       O    -0.43724    2.85947  -16.06404
      H1    -1.20571    2.91119  -16.71077
       H     5.19644   -7.66532  -14.18991
       O     5.43654   -8.05476  -13.31958
      H1     4.98515   -8.92536  -13.45784
       H     4.07783   -0.75740  -17.59220
       O     4.56748   -1.57307  -17.42589
      H1     4.56597   -1.96507  -18.31635
       H     2.96993  -11.14792  -17.95462
       O     2.89520  -10.60792  -18.75209
      H1     3.22394   -9.71044  -18.48868
       H     0.13487    1.18912  -15.30217
       O     0.22179    0.21758  -15.32031
      H1    -0.56180   -0.05709  -15.80611
       H    -3.78532   -8.43726  -16.81005
       O    -4.73229   -8.25075  -16.67727
      H1    -4.92892   -7.74403  -17.51258
       H     9.02895   -0.91047  -16.01114
       O     8.96211   -1.30969  -16.89544
      H1     8.63396   -2.25223  -16.84031
       H     1.24532   -5.26315  -15.58417
       O     1.28686   -6.02154  -14.96338
      H1     0.44242   -6.02597  -14.48250
       H     4.62533  -12.21872  -14.52185
       O     4.73506  -11.37470  -14.96989
      H1     3.87790  -11.01163  -15.01055
       H     1.61859   -4.55270  -14.11950
       O     1.80777   -3.57883  -13.92888
      H1     1.37836   -3.12341  -14.63058

