180
frame 10 | Written by MDAnalysis XYZWriter (release 2.4.3)
       H     9.82434    8.22666    1.85190
       O     9.57068    7.87706    2.69927
      H1     9.87244    8.53630    3.32231
       H    11.22868    6.75187    8.23353
       O    11.91383    6.54944    7.57416
      H1    12.01445    7.44756    7.10122
       H    18.61140   13.10398    3.59843
       O    18.20591   13.82547    4.09991
      H1    17.49176   13.36259    4.61268
       H    11.91901   14.73926   -0.87126
       O    11.16510   14.76665   -0.29753
      H1    10.69122   15.57202   -0.61679
       H    15.88244   12.19866    5.98227
       O    16.22773   13.06652    5.84386
      H1    15.57094   13.48109    5.28261
       H     9.86089   13.70110   11.34540
       O    10.10332   13.63166   10.39427
      H1     9.15659   13.54525   10.00642
       H    16.68333   11.77395    0.45060
       O    17.47748   11.57241    0.01913
      H1    18.10319   11.60562    0.77206
       H    18.36897    8.59434    6.33205
       O    18.33853    9.04082    5.47026
      H1    19.07844    8.60890    4.97005
       H     9.60930    9.83255    5.28965
       O    10.02996    9.08031    5.63542
      H1     9.37669    8.32205    5.66024
       H    16.24932   14.35436    1.69168
       O    16.33200   15.08631    2.33223
      H1    17.08489   14.72377    2.85971
       H     9.67116   11.58315    0.84970
       O     8.99399   11.85685    0.29064
      H1     9.11441   12.78282    0.07685
       H    17.54075    8.22666   -1.64768
       O    18.08538    7.94013   -0.90207
      H1    17.73863    8.39937   -0.12040
       H    17.76790    9.47071    2.11856
       O    17.58993    8.62217    1.75996
      H1    18.08523    8.06363    2.34595
       H    13.88300   19.09347    1.71138
       O    13.42843   18.28418    1.45152
      H1    12.52886   18.48902    1.72051
       H    19.04275   17.34265   11.62491
       O    18.21631   17.03623   11.27259
      H1    18.51068   16.65415   10.40604
       H    12.87118   18.74511    4.12930
       O    13.47535   18.84297    4.89585
      H1    13.04668   19.39797    5.53450
       H    15.51921   13.34091   11.87063
       O    14.58062   13.38646   11.68686
      H1    14.61875   13.37847   10.67478
       H    16.93639   16.44537    8.44877
       O    17.81908   16.06308    8.57149
      H1    18.45659   16.52636    7.94461
       H    14.22394   12.29711    0.29240
       O    14.79497   13.12240    0.49890
      H1    15.23065   13.24826   -0.34121
       H    13.07638   11.44995   13.54974
       O    13.26662   10.97853   12.66780
      H1    13.74180   11.61145   12.10696
       H    12.60596   16.38549   10.39340
       O    11.65592   16.12473   10.42196
      H1    11.64491   15.19723   10.47653
       H    12.70328    6.72269    2.26407
       O    13.46031    6.94858    2.81082
      H1    13.89297    7.71735    2.39547
       H     8.90933   15.21746    3.41079
       O     9.31572   15.79546    2.67392
      H1     9.74564   16.41986    3.25281
       H    15.59624    8.72240    1.65271
       O    14.88800    9.35828    1.38306
      H1    14.67567    8.92890    0.56808
       H    11.60514   12.14959    2.17555
       O    11.71339   11.25720    1.81418
      H1    12.32423   10.85895    2.46239
       H    14.51907   10.79656    5.00765
       O    14.98202   10.76424    5.93803
      H1    15.61662   10.06877    5.74126
       H     8.89261   13.80941    7.03817
       O     9.10263   14.75974    7.20316
      H1     8.39132   15.28599    6.86316
       H    17.81133   14.07081   -0.95725
       O    17.73114   14.66591   -0.18542
      H1    18.43870   14.29174    0.36942
       H    15.67916   18.82820   12.00499
       O    15.91230   18.49289   11.14160
      H1    16.77132   18.12276   11.40116
       H    14.60981   15.68677   11.14221
       O    14.17134   16.48917   10.78535
      H1    14.74899   17.24912   10.98149
       H    18.12844   15.90655   -3.22901
       O    18.02237   16.32483   -2.34294
      H1    18.27194   15.53426   -1.78323
       H    13.12687   18.72050    8.55835
       O    13.76567   19.33911    8.99575
      H1    14.55265   18.85804    8.86006
       H     9.88284   11.58198    7.79075
       O     9.17592   12.09662    7.26377
      H1     8.40893   11.53900    7.53491
       H    14.22749   18.19581   -1.67566
       O    13.39903   18.59493   -1.40512
      H1    13.27468   18.38269   -0.47672
       H    17.98422   17.45565    3.52407
       O    18.25051   17.02244    4.35600
      H1    17.40375   16.63059    4.55586
       H    10.93952   17.74129    4.81750
       O    11.12106   17.38726    3.92542
      H1    11.17156   16.48347    4.19947
       H    17.67814   14.17181   11.69777
       O    17.21485   13.31038   11.61088
      H1    17.22799   13.18099   10.65481
       H    12.54179   11.37415    0.39056
       O    12.89010   11.24499   -0.54187
      H1    12.74742   10.26711   -0.69740
       H     8.41038   13.17325    4.24551
       O     7.93007   13.94885    4.13783
      H1     7.23932   13.71448    3.53636
       H    11.68120    8.75184    5.24424
       O    12.59970    8.53929    5.17195
      H1    12.55293    7.85699    4.47895
       H    11.10424   14.43534    2.75736
       O    11.85514   13.86204    2.40519
      H1    11.76042   14.06066    1.43461
       H    13.31323    9.69748    4.08873
       O    13.54200   10.50895    3.62603
      H1    13.90971   10.18738    2.77632
       H    14.68998   17.47480    5.29798
       O    15.27563   16.66449    5.52150
      H1    14.84386   16.01560    4.95890
       H    18.23198   12.30434   -1.38529
       O    18.75340   12.61515   -2.16530
      H1    18.13644   12.63776   -2.94172
       H    11.55167   17.50531    8.67140
       O    11.99165   17.51053    7.76670
      H1    11.17430   17.69429    7.30074
       H     8.82878   17.97551    6.67242
       O     9.68481   18.27245    6.31986
      H1     9.67345   19.21093    6.48084
       H    13.65129   15.18718    6.47586
       O    13.06620   14.86193    7.15419
      H1    12.67812   15.61765    7.55023
       H    14.25393   11.94551    8.67390
       O    13.75607   11.10728    8.60279
      H1    14.19904   10.79853    7.71693
       H    10.27489   14.74032    6.08867
       O    10.92907   14.68971    5.34013
      H1    11.69548   14.36454    5.79675
       H    18.10940   11.64854   14.04152
       O    18.63925   11.54670   13.20687
      H1    18.08268   11.97968   12.57809
       H    13.64195   14.12058    3.78598
       O    14.51859   14.23850    4.16024
      H1    15.11189   14.47099    3.41221
       H    15.86373   13.50472    8.48756
       O    15.13963   13.45482    9.10034
      H1    14.60396   14.06188    8.56184
       H    18.04276    7.57960    8.91156
       O    18.63046    8.05337    8.28146
      H1    19.36651    7.40926    8.20735
       H    18.46885   13.46236    8.35609
       O    18.26996   12.98684    9.18003
      H1    18.67006   12.09909    9.13006
       H    10.36249   11.92922    4.06239
       O     9.55629   11.57618    4.39915
      H1     9.55515   11.96011    5.25387
       H    16.66343   18.31729    8.15526
       O    15.90404   17.75753    8.16252
      H1    15.74677   17.76054    7.22274
       H    10.63060   11.96970    9.52527
       O    10.91052   11.12197    9.16896
      H1    11.83141   11.35005    8.89447
       H    17.34742   16.60496    1.47481
       O    17.90408   17.40202    1.58124
      H1    17.52030   18.03319    1.00635
       H    18.60698   10.64780    3.73252
       O    18.62341   11.06331    2.89780
      H1    19.58633   10.90590    2.63923
       H    10.64906   17.86502    1.98098
       O    10.68314   18.71882    1.46691
      H1    10.72952   19.39870    2.20046

