180
frame 8 | Written by MDAnalysis XYZWriter (release 2.4.3)
       H    13.24990  -17.10849  -18.44575
       O    14.11525  -16.80440  -18.80942
      H1    14.37133  -17.45323  -19.47159
       H    12.00606  -12.75521  -13.50352
       O    12.31123  -12.23456  -14.23359
      H1    13.26177  -12.39199  -14.22396
       H     7.60842  -18.43700  -10.74977
       O     6.82880  -18.14273  -11.23414
      H1     7.30196  -17.73700  -12.03406
       H     9.18400   -6.90963  -19.36018
       O    10.06772   -7.25345  -19.27880
      H1     9.92938   -7.96040  -18.67966
       H    12.71933  -15.02461  -10.43465
       O    11.92278  -15.35159  -10.90274
      H1    12.23017  -16.16483  -11.35451
       H     7.39430  -10.01374  -18.07199
       O     6.40344  -10.00953  -18.18380
      H1     6.31396   -9.75897  -19.12031
       H    11.42505   -4.42255  -16.65213
       O    11.55257   -4.58482  -15.72901
      H1    11.84574   -5.50710  -15.69879
       H     4.94551  -15.79442  -12.74718
       O     4.08873  -16.13079  -12.50590
      H1     4.12826  -16.06828  -11.56382
       H     1.80707  -13.02337  -17.07160
       O     2.61272  -12.50647  -16.98002
      H1     3.22238  -12.90873  -17.64126
       H    11.80380  -13.97044  -14.90374
       O    12.09319  -14.73760  -15.47226
      H1    13.04669  -14.71036  -15.16430
       H     7.62991  -18.16293  -13.87289
       O     7.04246  -18.39597  -14.61281
      H1     7.54732  -19.05517  -15.16239
       H     9.93827  -10.71222  -10.76199
       O    10.54522  -11.46980  -10.62969
      H1    10.28773  -12.01857  -11.36505
       H     3.87822   -7.43844  -17.78184
       O     3.93712   -8.38093  -17.49576
      H1     4.90993   -8.44773  -17.54766
       H    11.82679   -9.54357  -16.36650
       O    11.46162   -9.72536  -15.48794
      H1    11.95525  -10.46209  -15.10934
       H     8.99427  -16.94969   -9.92855
       O     9.27327  -16.20935  -10.47659
      H1    10.23350  -16.18212  -10.41083
       H     9.04418  -16.62414  -12.15582
       O     8.74511  -16.83065  -13.05750
      H1     8.63948  -15.92751  -13.46049
       H     9.28992  -10.69058  -18.69269
       O     9.10296  -10.11610  -17.85780
      H1     9.52663  -10.65441  -17.21888
       H     8.58679  -10.79227  -13.89668
       O     8.67028  -10.12698  -14.59891
      H1     9.59328  -10.00166  -14.63067
       H     6.89022  -15.22654   -9.63314
       O     6.50455  -15.56550  -10.44114
      H1     6.50788  -16.52164  -10.29167
       H     7.93339   -7.61390  -14.67191
       O     7.62605   -6.86131  -15.13708
      H1     7.13155   -6.40983  -14.43443
       H     8.99927  -11.65123  -15.52751
       O     9.13456  -12.51713  -16.00965
      H1     8.32952  -12.73945  -16.42094
       H    15.47861  -10.29519  -18.20886
       O    15.86799  -10.53100  -19.09857
      H1    16.79877  -10.19063  -18.98700
       H    15.04441  -13.18800  -13.83477
       O    14.49327  -14.04075  -14.04510
      H1    14.95931  -14.51855  -13.30283
       H     2.69699   -8.95372  -16.38114
       O     1.98553   -9.03820  -15.69831
      H1     1.78613   -8.06078  -15.66754
       H     9.81607   -4.36964  -15.50418
       O     8.82409   -4.38627  -15.23232
      H1     8.50603   -5.28011  -15.33031
       H     8.82807   -8.24334   -9.53797
       O     8.53278   -9.13323   -9.87370
      H1     8.12579   -9.00128  -10.70066
       H     4.78947  -14.48871  -18.57495
       O     4.40940  -13.65134  -18.89901
      H1     4.98392  -13.04135  -18.31922
       H     2.76383  -16.66323  -16.07088
       O     3.02390  -17.38645  -16.70673
      H1     3.97207  -17.08315  -16.89686
       H     6.91243   -8.45220  -12.53200
       O     7.83083   -8.31625  -12.85745
      H1     7.92023   -9.01495  -13.53475
       H     8.91505  -13.49262  -14.45719
       O     8.76091  -14.28218  -13.90555
      H1     7.91715  -14.03602  -13.51065
       H     5.95544  -11.31482  -17.32174
       O     5.67503  -12.12671  -16.85943
      H1     5.25498  -11.73993  -16.00287
       H    12.46450   -7.84918  -15.25282
       O    12.91926   -7.05570  -15.46797
      H1    13.20763   -7.25892  -16.38027
       H    16.52078  -10.68302  -16.56011
       O    16.04813  -11.26374  -15.94081
      H1    16.66343  -12.04654  -15.92014
       H    13.07477  -11.06850  -17.65544
       O    12.95578  -10.11192  -17.67456
      H1    13.24782   -9.85301  -18.56030
       H     8.86191   -7.19548  -11.77394
       O     9.77822   -6.76252  -11.76661
      H1    10.20310   -7.43637  -12.38796
       H     8.69593  -15.85661  -15.21665
       O     8.06456  -16.14797  -15.91792
      H1     7.94862  -17.07298  -15.63173
       H    11.64862  -19.90657  -14.71378
       O    10.90531  -19.78401  -14.09947
      H1    11.13106  -18.87654  -13.81973
       H     6.28878  -14.49688  -11.94308
       O     6.27046  -14.35706  -12.89829
      H1     5.89089  -13.48234  -12.95191
       H    10.51772  -12.51799   -9.27965
       O    10.04720  -12.93289   -8.51584
      H1    10.62322  -13.70928   -8.39761
       H     6.90497  -11.17802  -12.06053
       O     7.52518  -11.58682  -12.68950
      H1     8.00497  -12.23189  -12.07150
       H     6.93168   -6.64903  -17.00634
       O     6.10326   -6.36124  -17.47328
      H1     5.52047   -6.12232  -16.70026
       H     8.53194  -16.93251  -19.37511
       O     9.08193  -16.34917  -18.85839
      H1     8.48743  -16.26287  -18.05266
       H    11.40460  -17.48774  -16.90240
       O    11.36256  -17.83446  -17.79825
      H1    10.68123  -17.26358  -18.13369
       H    12.31901  -16.59450  -15.34138
       O    12.46082  -17.52428  -14.99136
      H1    13.28627  -17.87670  -15.46205
       H     7.09436  -18.46484  -19.16881
       O     7.21491  -18.36008  -18.23344
      H1     7.25376  -19.25599  -17.80815
       H     9.95308  -13.96291  -12.44231
       O    10.81649  -13.52254  -12.26750
      H1    11.25903  -14.14530  -11.71129
       H    13.83705  -10.83873  -11.07765
       O    13.11924  -10.20355  -11.00353
      H1    12.32163  -10.74653  -11.21246
       H     3.85548   -7.42483  -13.51683
       O     4.16928   -8.24347  -13.81007
      H1     3.47437   -8.86152  -13.57541
       H    13.01115  -13.32328  -16.95692
       O    13.39004  -12.73037  -17.66295
      H1    14.31620  -13.04852  -17.57733
       H     2.70254  -10.92373  -17.74886
       O     2.71829  -10.34181  -18.49459
      H1     3.16216   -9.52545  -18.14621
       H    12.37238   -8.67592  -12.83709
       O    11.93843   -7.81820  -12.98164
      H1    12.64165   -7.21278  -12.71182
       H    11.59797   -6.37611  -19.65140
       O    12.48473   -6.01185  -19.77077
      H1    12.44028   -5.43252  -19.04189
       H     9.09169  -13.27368  -10.40843
       O     8.31003  -13.36012  -11.01072
      H1     8.11330  -14.30360  -10.89889
       H    14.94397  -15.02535  -19.31668
       O    15.62870  -14.41886  -19.01763
      H1    15.87470  -14.00376  -19.86828
       H    15.43018  -10.51565  -14.46846
       O    15.21408  -10.45410  -13.51898
      H1    15.01867   -9.52652  -13.32324
       H    12.47991  -17.52443  -13.24163
       O    12.21565  -17.62799  -12.27367
      H1    12.48062  -18.52042  -12.15891
       H     5.90446  -16.28169  -16.05217
       O     5.43501  -16.47274  -16.88800
      H1     6.07019  -17.02737  -17.28546
       H     3.42194  -12.93524  -12.70348
       O     3.73700  -12.34573  -13.41096
      H1     3.11912  -11.55900  -13.34634
       H     6.81875  -12.96176   -9.87192
       O     5.99165  -12.68281   -9.45309
      H1     6.23185  -12.42629   -8.54619
       H     4.65238  -11.32887  -12.25608
       O     5.09682  -10.75787  -11.58181
      H1     5.13312  -11.38360  -10.85534

