180
frame 12 | Written by MDAnalysis XYZWriter (release 2.4.3)
       H   -12.42795  -11.66597    8.80725
       O   -12.77391  -12.16215    8.05031
      H1   -13.27542  -11.55539    7.57281
       H   -15.30872  -14.09414   -0.88015
       O   -14.44725  -14.56058   -0.97635
      H1   -14.41010  -15.38172   -0.48939
       H   -16.76828  -13.02160    1.36595
       O   -16.45943  -12.17093    1.07003
      H1   -15.73178  -11.90953    1.70629
       H   -17.33702  -19.36263    5.67723
       O   -17.53171  -18.50970    6.15242
      H1   -17.70634  -18.85424    7.05418
       H   -18.00069  -18.39688    9.07955
       O   -17.42060  -19.15523    9.01037
      H1   -17.87942  -19.75291    9.57761
       H    -6.06892  -16.87272    6.94106
       O    -6.20394  -17.71673    6.47519
      H1    -6.12012  -17.40682    5.49909
       H    -8.68828  -18.74397    2.82253
       O    -7.77139  -18.99769    3.13600
      H1    -7.88769  -19.61256    3.92107
       H    -8.82197  -11.45888    7.12508
       O    -8.88321  -11.86698    6.26702
      H1    -9.63408  -12.46203    6.24354
       H   -15.39158  -18.06208   10.86331
       O   -15.45422  -17.37114   11.54735
      H1   -16.13461  -17.72238   12.07581
       H   -16.98717  -16.23415    8.14977
       O   -17.98155  -16.31934    8.34240
      H1   -18.42723  -15.84155    7.64759
       H   -16.83066  -16.31317   -2.56573
       O   -17.60517  -15.65600   -2.59521
      H1   -18.32639  -16.12381   -2.15538
       H   -16.96219  -11.00861    7.66567
       O   -16.51011  -10.26033    7.25382
      H1   -16.85466   -9.51504    7.66332
       H   -16.87907  -15.06777    4.79359
       O   -17.49159  -14.34606    4.76747
      H1   -17.10421  -13.49641    4.57824
       H   -10.67840  -13.99999    0.05374
       O   -11.10891  -14.71788    0.50655
      H1   -10.47896  -15.34880    0.85680
       H   -10.20931  -12.83640   -2.33931
       O    -9.82927  -12.35363   -1.54760
      H1   -10.46566  -11.65889   -1.50652
       H    -8.40617  -17.56121    6.30764
       O    -9.27946  -17.48626    6.70312
      H1    -9.09043  -16.84858    7.37251
       H    -9.76296  -18.19514   -1.34171
       O   -10.70819  -18.06598   -1.61733
      H1   -10.59292  -17.11979   -1.82276
       H   -17.59104  -10.82201    1.23536
       O   -18.24969  -10.06629    1.37729
      H1   -18.86552  -10.33384    0.69000
       H   -15.14008  -18.52548    3.49166
       O   -14.86216  -19.13979    2.82484
      H1   -14.62209  -19.93086    3.37914
       H   -14.00197  -19.56771    5.43074
       O   -13.64754  -18.70742    5.29350
      H1   -12.77606  -18.96929    4.93559
       H   -14.09037  -13.10249    9.14205
       O   -14.86936  -13.65189    9.32766
      H1   -14.91785  -13.81009   10.25565
       H   -13.74502  -16.63612   11.48125
       O   -12.96769  -16.22470   11.05136
      H1   -12.37701  -15.99674   11.76865
       H   -19.82478  -16.00576    5.90393
       O   -19.52486  -15.16090    6.28850
      H1   -18.76829  -14.75644    5.72153
       H   -11.57823  -10.96415    1.72845
       O   -11.59111  -10.18814    1.12485
      H1   -11.51964  -10.40379    0.20662
       H   -13.53242  -14.19526    1.17241
       O   -13.97372  -14.00171    2.04290
      H1   -14.45095  -14.78408    2.25801
       H   -11.23297  -17.41154    2.29821
       O   -10.41156  -17.29851    1.78969
      H1   -10.67957  -17.67373    0.91481
       H   -10.73900  -19.70821    3.83724
       O   -11.14056  -19.34283    4.65297
      H1   -10.61684  -18.66245    5.13170
       H   -15.86940  -10.62350    4.20899
       O   -16.69797  -10.86714    4.65805
      H1   -16.68008  -10.52584    5.57674
       H    -6.80856  -17.74555    3.50217
       O    -6.20560  -16.97540    3.78500
      H1    -6.74320  -16.17671    3.72552
       H   -10.87901  -10.91765    4.30938
       O   -11.56453  -11.46649    3.83405
      H1   -11.83378  -12.02158    4.54573
       H    -8.88141  -17.92875   10.81464
       O    -9.73551  -18.20425   11.04546
      H1    -9.98675  -18.69642   10.30553
       H   -13.47157  -18.48219    7.27044
       O   -13.19564  -18.01731    8.10544
      H1   -13.74463  -18.47257    8.80559
       H    -8.77952  -10.61053    4.88939
       O    -9.15425   -9.83019    4.42819
      H1    -8.75522   -9.93360    3.50435
       H   -18.04793  -14.41724    3.07402
       O   -18.09818  -14.32464    2.10399
      H1   -18.95085  -13.91968    1.91799
       H    -7.25046  -14.35899    2.84510
       O    -7.34187  -14.58791    3.75930
      H1    -8.20869  -14.51933    4.03097
       H   -10.39984  -20.11778    8.08189
       O    -9.75068  -19.48467    8.46434
      H1    -9.57834  -18.90580    7.71308
       H   -17.36448  -13.71246   -1.95718
       O   -16.68743  -13.06468   -1.73457
      H1   -16.90677  -12.74412   -0.84842
       H   -14.37647   -9.88863    2.70273
       O   -14.53867  -10.81241    2.86720
      H1   -13.74034  -11.15856    3.19455
       H   -17.59380  -16.12370    1.17185
       O   -17.29144  -16.90203    0.72704
      H1   -17.64028  -17.65812    1.21755
       H   -10.64799  -14.45074    9.89686
       O   -10.20399  -13.73183   10.42785
      H1   -10.88343  -13.31192   11.00580
       H   -19.14974  -17.97976    5.79520
       O   -20.04646  -17.72235    5.57643
      H1   -20.20643  -17.84028    4.62406
       H   -15.28165  -14.06134   -4.30503
       O   -14.46791  -14.23750   -3.79778
      H1   -14.61251  -14.23069   -2.84963
       H   -14.25084  -13.37589    3.82039
       O   -14.39998  -13.48951    4.79229
      H1   -14.94599  -12.73101    5.05680
       H   -17.01464  -13.37818    8.29169
       O   -17.58157  -12.63592    8.29100
      H1   -17.51161  -12.24777    9.17344
       H   -13.56799  -17.83584   -0.85735
       O   -13.96725  -18.41544   -1.58882
      H1   -14.40736  -19.10154   -0.97699
       H   -14.36429  -16.44929    8.36397
       O   -15.18552  -15.98710    8.07557
      H1   -15.12786  -15.07425    8.51361
       H    -6.24543  -13.54536    0.64736
       O    -6.26328  -14.43260    0.95976
      H1    -6.69228  -15.03594    0.35231
       H   -18.52238  -17.03732   -0.79786
       O   -19.41539  -17.09467   -1.10466
      H1   -19.49930  -18.03414   -1.38414
       H   -16.50587  -17.00243    5.26377
       O   -15.88635  -16.60308    4.63966
      H1   -15.05887  -16.50828    5.14356
       H    -8.46226  -16.25270   -0.40184
       O    -8.38871  -15.35835   -0.73978
      H1    -7.73252  -15.36702   -1.43526
       H   -11.87513  -13.22934    6.77130
       O   -11.28165  -13.59005    6.07041
      H1   -11.61213  -14.47527    5.85989
       H   -14.78851  -10.11441    6.74052
       O   -13.91867  -10.23614    6.32099
      H1   -13.76268   -9.36178    5.95378
       H    -8.20165  -19.15684   -0.28538
       O    -8.19932  -18.24103   -0.68350
      H1    -7.80084  -18.35916   -1.57411
       H   -13.68907  -14.83811    5.70458
       O   -13.20782  -15.71470    5.69717
      H1   -13.57896  -16.14119    6.47757
       H    -6.62583  -13.05626    4.49624
       O    -6.37368  -12.50805    5.26242
      H1    -7.25377  -12.52065    5.71140
       H   -10.61975  -16.86374   10.03786
       O   -10.69744  -16.26811    9.26484
      H1   -11.66574  -16.13869    9.17115
       H   -12.33491  -15.43025   -2.18556
       O   -11.73591  -15.84570   -2.82329
      H1   -12.24467  -16.64887   -3.17445
       H   -13.53285  -17.69350    3.40864
       O   -12.89251  -16.93671    3.20951
      H1   -12.70907  -16.38088    3.95949
       H   -15.06982  -16.27551   -3.44059
       O   -15.54114  -17.15277   -3.42518
      H1   -14.99440  -17.64171   -2.82867
       H   -12.42689  -15.82101    0.26465
       O   -13.16443  -16.46131    0.34377
      H1   -13.20360  -16.61502    1.31099

