180
frame 1 | Written by MDAnalysis XYZWriter (release 2.4.3)
       H    11.75218  -12.23457   -3.64996
       O    10.86632  -12.66127   -3.90493
      H1    10.84215  -12.26558   -4.81873
       H    10.76615   -7.32317    1.92857
       O    11.14371   -8.07031    2.47205
      H1    11.84370   -8.25160    1.84257
       H    13.05862   -8.49632   -7.58323
       O    13.89164   -9.00267   -7.46897
      H1    14.23555   -8.84083   -6.60791
       H    17.12513   -7.02794   -3.70542
       O    16.78977   -6.74831   -2.81120
      H1    17.30446   -5.95068   -2.62311
       H    12.62611  -10.75175   -9.51445
       O    13.55265  -10.91257   -9.25328
      H1    13.77763  -10.12919   -8.72448
       H    14.68805   -3.99157   -5.76697
       O    14.53892   -4.78631   -6.30385
      H1    13.83944   -5.32550   -5.97706
       H    11.78146  -11.39194    0.30453
       O    12.07212  -10.76247   -0.37987
      H1    11.32187  -10.33665   -0.73671
       H    12.91312   -6.03094   -2.44723
       O    12.67245   -5.11694   -2.48863
      H1    13.52308   -4.65863   -2.45838
       H    12.73405   -9.05615   -4.68567
       O    13.54492   -9.26423   -4.17540
      H1    13.43911  -10.18620   -3.99204
       H    13.56671   -4.42344   -8.04472
       O    13.24348   -4.14640   -8.97021
      H1    12.46487   -4.75119   -9.01431
       H    15.40963   -0.01251   -2.75532
       O    14.79489   -0.19158   -2.05373
      H1    14.09413    0.37704   -2.37877
       H    17.50567   -6.29196   -6.42339
       O    16.84060   -6.78358   -5.91226
      H1    16.04233   -6.28633   -6.10600
       H    12.99360   -8.21684   -1.26842
       O    12.58609   -7.84715   -2.04979
      H1    12.85484   -8.45508   -2.78889
       H    18.73627   -1.63786    0.48194
       O    18.85831   -1.30889   -0.42817
      H1    18.29881   -1.76556   -1.04369
       H    12.42397   -4.56417   -0.35651
       O    12.07978   -4.16849    0.44186
      H1    11.52781   -3.43750    0.19252
       H    13.74357   -3.04098    3.00651
       O    13.45634   -2.52755    2.22404
      H1    13.13895   -3.20210    1.63416
       H    18.42443   -3.56909   -6.32812
       O    18.37192   -4.43448   -6.79940
      H1    17.50562   -4.34569   -7.16764
       H    17.98052   -3.09051   -2.83757
       O    17.43077   -2.34942   -2.68638
      H1    17.41288   -1.84794   -3.51472
       H    15.88135   -9.64168    1.79539
       O    16.06215   -8.66086    1.79850
      H1    16.78304   -8.58507    1.17899
       H    15.57583   -0.53223   -0.64455
       O    16.04444   -0.57579    0.18567
      H1    16.68227    0.21823    0.08008
       H    11.08730   -6.86676   -1.23941
       O    10.32501   -6.38146   -0.92743
      H1     9.64293   -7.05262   -1.05249
       H    15.69016   -4.07242    1.93100
       O    16.47065   -3.85734    1.41602
      H1    16.16443   -3.04492    0.91410
       H    17.45858  -12.63280   -7.27991
       O    17.78419  -11.89863   -7.81892
      H1    17.93920  -12.35304   -8.62356
       H    16.24730  -13.85949   -3.20291
       O    15.58010  -13.18055   -3.34023
      H1    16.00573  -12.34093   -3.41554
       H    17.73403   -0.29320   -6.78894
       O    17.46523   -1.19989   -6.62290
      H1    16.95693   -1.46214   -7.40866
       H    17.48925   -5.05133    0.72450
       O    18.16567   -5.66267    0.60414
      H1    18.74752   -5.49450    1.36108
       H    14.26464   -8.39280    0.85668
       O    13.32752   -8.33921    0.68322
      H1    13.14990   -9.30296    0.47838
       H    14.80318   -0.55244   -7.90675
       O    14.02766   -0.02058   -8.24168
      H1    13.32972   -0.66967   -8.02909
       H    11.05924  -11.92598   -7.20865
       O    10.85519  -11.56650   -6.34841
      H1    11.19728  -10.65269   -6.40609
       H    13.91489  -12.28959   -2.95301
       O    13.18155  -11.65894   -3.11236
      H1    13.19743  -11.22201   -2.25818
       H    15.93689   -6.20344   -9.17383
       O    16.42969   -5.56391   -8.71098
      H1    17.23273   -5.41695   -9.29250
       H    18.92648   -4.24669   -8.68044
       O    18.57839   -4.04023   -9.55668
      H1    19.35805   -3.95575  -10.11982
       H    17.74357  -10.13742   -6.90180
       O    17.99691   -9.54377   -6.18039
      H1    17.58280   -8.68479   -6.26237
       H    16.25361    0.97168   -4.75627
       O    16.52230    0.19906   -4.21134
      H1    17.38208    0.62977   -3.91514
       H    19.15153   -9.83652    3.79653
       O    19.75828   -9.53630    3.10822
      H1    19.08006   -8.97017    2.71005
       H    10.02856   -4.47241   -1.98786
       O     9.93300   -3.51023   -2.15303
      H1    10.69650   -3.27649   -2.69938
       H    15.91240   -3.57072   -8.42511
       O    16.38934   -2.68846   -8.73998
      H1    17.18544   -3.18450   -9.11464
       H    11.17164   -5.70893   -4.78118
       O    12.02293   -6.08786   -5.18266
      H1    12.55343   -6.07178   -4.38647
       H    11.69966   -0.00654   -1.05465
       O    11.47701   -0.90796   -0.71757
      H1    11.83032   -1.40422   -1.45497
       H    15.52010   -9.64744   -0.94302
       O    15.04005  -10.52346   -0.92797
      H1    15.76582  -11.16260   -0.92553
       H    13.23164   -2.18164   -2.94425
       O    12.30230   -2.00513   -3.17347
      H1    12.31387   -1.14103   -3.62561
       H    16.82685  -10.52598   -8.92023
       O    16.90243   -9.59803   -9.27418
      H1    17.85168   -9.37196   -9.31514
       H    13.38917   -2.31918   -6.84426
       O    12.58941   -2.10408   -7.35231
      H1    12.64575   -2.77309   -8.08652
       H    10.96706   -3.26799   -6.97402
       O    10.04232   -3.45595   -7.34203
      H1     9.70630   -2.55106   -7.56199
       H    10.15753   -8.99417   -5.67881
       O    11.03708   -8.61779   -5.85365
      H1    11.10023   -7.86835   -5.26933
       H    15.35025   -4.28424   -1.27020
       O    15.09452   -3.90136   -2.05821
      H1    15.89740   -3.39271   -2.20184
       H    19.65026   -4.70900   -2.46401
       O    18.76245   -4.57954   -2.19811
      H1    18.80474   -4.78662   -1.27010
       H    18.29202   -9.25636   -0.40773
       O    18.45747   -8.60132    0.32403
      H1    18.56221   -7.71097   -0.07664
       H    14.39848  -15.43702   -5.08444
       O    14.15082  -14.55240   -5.42186
      H1    14.35754  -13.95881   -4.65812
       H    17.22754   -7.34648    2.95174
       O    17.73189   -7.32424    3.76051
      H1    18.39008   -6.69981    3.72055
       H    16.85495   -9.97801   -4.68610
       O    16.46134  -10.33497   -3.88988
      H1    15.75447   -9.70496   -3.74346
       H     9.17112   -9.19952   -1.97313
       O     9.77093   -9.78119   -2.46564
      H1     9.41610  -10.66103   -2.35765
       H    15.81532  -14.43189   -6.37632
       O    16.72409  -14.32103   -6.73057
      H1    16.49301  -14.68927   -7.62476
       H    14.98637   -1.90372   -4.62728
       O    15.02538   -2.10563   -5.57219
      H1    15.88815   -1.48430   -5.67240
       H    13.86650  -12.70606   -8.20749
       O    13.52559  -13.58801   -8.26835
      H1    13.28216  -13.91073   -7.37320
       H    19.22798   -9.71248   -2.31341
       O    18.39472   -9.93589   -1.94748
      H1    17.75177  -10.05149   -2.64040
       H    15.97386   -9.88906  -10.95969
       O    15.27334  -10.20214  -11.52017
      H1    14.76855  -10.51687  -10.78711
       H    13.79831  -11.06386    2.18614
       O    14.61979  -11.09344    2.71622
      H1    15.28980  -11.43776    2.07516
       H    15.65153   -7.04947  -11.29340
       O    14.95854   -7.28483  -10.66440
      H1    15.14059   -8.18945  -10.42341
       H    16.83820  -13.06089    1.28458
       O    16.81923  -12.08879    0.98661
      H1    17.72818  -11.86862    1.20658

