180
frame 6 | Written by MDAnalysis XYZWriter (release 2.4.3)
       H   -17.21032    6.84784    9.80578
       O   -17.39152    7.37357   10.66239
      H1   -17.71380    8.24868   10.38175
       H   -17.41803   -2.38873    6.33759
       O   -17.05398   -1.59363    6.81851
      H1   -17.79437   -1.43615    7.45295
       H   -18.26390    0.63241   11.04743
       O   -18.80227    1.21807   10.45256
      H1   -17.99108    1.72650   10.17986
       H   -13.85481    6.80738   11.20583
       O   -14.63542    6.32115   11.50968
      H1   -15.34021    6.92751   11.22001
       H   -16.21658    0.74759   11.71635
       O   -16.80869    0.10341   12.19218
      H1   -17.25628    0.71401   12.84576
       H   -13.26269    1.22035    3.66729
       O   -14.22307    1.42749    3.65952
      H1   -14.21342    2.38473    3.57609
       H   -17.26365    3.42710   16.70722
       O   -16.92618    2.52051   16.83202
      H1   -16.03978    2.64516   17.17179
       H   -15.05252    9.54996    7.54287
       O   -16.00664    9.76068    7.78353
      H1   -16.06123    9.56339    8.72361
       H   -13.59854    3.19644    5.53076
       O   -13.62047    2.67813    6.35028
      H1   -13.27855    1.84284    5.98544
       H   -10.65667   -1.31610   11.01636
       O   -10.83180   -1.23702   10.05462
      H1   -11.67930   -0.82293   10.00390
       H   -14.68601    8.27355   14.04560
       O   -13.91580    7.73648   13.71043
      H1   -14.30908    7.31879   12.85163
       H   -19.54493    9.58520    7.77352
       O   -19.04457   10.39166    7.56586
      H1   -18.10787   10.10608    7.44451
       H   -19.97555    0.58475    6.04446
       O   -19.28485    1.25145    5.89540
      H1   -18.69169    1.21783    6.67806
       H   -16.97735   -3.47332    4.75545
       O   -17.92264   -3.48828    5.10179
      H1   -18.29073   -3.14504    4.30373
       H   -12.57374    3.57246   10.01701
       O   -11.61553    3.49473    9.71414
      H1   -11.55008    2.67702    9.19217
       H   -16.20977   10.04268   14.09542
       O   -16.08209    9.20543   14.65019
      H1   -16.69855    8.67460   14.13941
       H   -11.46964    0.94626    7.27827
       O   -10.77938    1.49640    7.73845
      H1   -10.88923    2.38353    7.26584
       H   -16.71817    7.28357    5.53855
       O   -16.35000    7.21090    6.43528
      H1   -16.37306    8.16379    6.77706
       H   -10.75442    6.29111   11.02331
       O   -11.56221    6.89073   11.01748
      H1   -11.89021    6.64945   10.13639
       H   -18.32351    2.60858   14.09208
       O   -18.06648    1.65913   14.27660
      H1   -17.61043    1.76451   15.09940
       H   -19.16174   -3.64627    6.58346
       O   -19.05990   -3.77422    7.53005
      H1   -19.72206   -3.16583    8.01321
       H   -19.33056    9.92929    4.54404
       O   -19.55792    9.31927    3.80896
      H1   -18.84265    9.60110    3.21970
       H   -18.90733    9.91032    9.50040
       O   -18.55378    9.82348   10.40480
      H1   -17.91422   10.60906   10.37622
       H   -17.35783    4.67867   14.51295
       O   -18.27887    4.46729   14.89147
      H1   -18.47006    5.17619   15.50216
       H   -13.07310   -0.38383    5.08092
       O   -12.87903   -0.09058    5.93708
      H1   -12.19284   -0.63834    6.33942
       H   -12.37053    4.67214    7.54192
       O   -13.03300    5.22106    7.95455
      H1   -13.29071    5.68826    7.04188
       H   -19.09676    8.29304   13.89487
       O   -18.62626    7.59792   14.45384
      H1   -18.94724    6.77366   14.05659
       H   -15.25729    0.27793    0.22522
       O   -15.55086   -0.05099    1.12210
      H1   -14.87592    0.29445    1.70705
       H   -17.48435    3.67145    2.52410
       O   -17.35255    3.55871    1.57970
      H1   -17.75005    2.71228    1.29814
       H   -15.11087    3.28919   11.12604
       O   -15.65142    2.90288   11.83996
      H1   -15.47857    3.58446   12.49248
       H   -15.25413    2.26927    6.58431
       O   -16.22402    2.30395    6.45550
      H1   -16.40059    2.90689    7.19090
       H   -13.39345   10.57673    7.50122
       O   -13.47919    9.70985    7.12522
      H1   -13.26547    9.78358    6.19395
       H   -15.44902   -2.61393   13.33751
       O   -14.84762   -3.08835   12.82188
      H1   -14.58141   -3.87394   13.37090
       H   -18.75274    0.13891    4.50545
       O   -18.80177   -0.34598    3.63764
      H1   -17.87007   -0.69289    3.67414
       H   -14.93069    5.63769   13.07019
       O   -15.41100    5.10751   13.73871
      H1   -15.08679    5.47445   14.55272
       H   -16.35050    5.88332    7.82524
       O   -16.53670    5.57725    8.74776
      H1   -15.78179    4.98835    8.94221
       H   -15.25204    4.32461    3.50934
       O   -14.35403    4.44258    3.81679
      H1   -14.04629    5.09866    3.21040
       H   -18.36737   -1.35060   11.74567
       O   -19.11986   -1.93385   12.07671
      H1   -18.81363   -2.81381   11.84720
       H   -16.20956    6.95477    2.67377
       O   -16.35365    7.54212    3.42785
      H1   -16.65407    8.33778    2.88048
       H   -10.81436    4.46416    5.48388
       O   -10.78868    4.47476    6.45249
      H1   -10.65289    5.40670    6.62116
       H   -15.74585    0.85074    7.85529
       O   -15.42699    0.80569    8.75410
      H1   -14.66881    0.17678    8.72633
       H   -16.16710   -0.79238   13.81444
       O   -16.22290   -1.47711   14.50048
      H1   -15.62985   -1.18506   15.20912
       H   -18.71248    0.16773    9.05583
       O   -18.81614   -0.42662    8.26612
      H1   -19.25232   -1.18651    8.70222
       H   -13.47798   -0.97225    9.88297
       O   -13.28715   -0.69197    8.98783
      H1   -13.29899   -1.50566    8.49745
       H   -11.25633    8.40400    4.25073
       O   -11.82794    7.76838    3.75039
      H1   -12.44657    7.40053    4.41832
       H   -14.04556    3.90917    8.79008
       O   -14.62021    3.49122    9.43517
      H1   -14.78943    2.64936    9.00007
       H   -14.09144    0.53350   12.89524
       O   -14.60716    1.04822   13.57638
      H1   -15.27300    1.54843   13.04259
       H   -13.21833    2.03456   12.90797
       O   -12.28456    2.05447   12.58225
      H1   -11.86285    2.81588   12.97357
       H   -14.29090    7.04348    5.67440
       O   -13.58222    6.43637    5.46151
      H1   -14.00414    5.80883    4.94549
       H   -18.80976    6.58584   11.51201
       O   -19.59612    6.51508   12.12949
      H1   -19.57138    5.52651   12.27359
       H   -15.36986   -2.61826    6.80530
       O   -14.48308   -2.70237    6.47049
      H1   -14.35111   -1.75696    6.14166
       H   -17.21921    3.80948    8.93048
       O   -17.73758    3.00301    8.55524
      H1   -18.60232    3.40086    8.49941
       H   -16.53116   -4.13305    9.65581
       O   -16.51995   -3.77194    8.73281
      H1   -17.35678   -4.03956    8.31582
       H   -12.68684   -0.66743   12.21725
       O   -13.46459   -0.83376   11.58307
      H1   -13.66355   -1.72888   11.88097
       H   -18.15535    4.99087    0.64138
       O   -18.42851    5.90852    0.44360
      H1   -19.17167    5.99384    1.05473
       H   -13.71778    1.99779   14.74111
       O   -13.32999    2.47622   15.49041
      H1   -12.47639    2.11939   15.68638
       H   -12.98219    9.24723   10.41788
       O   -13.78535    8.93543    9.90121
      H1   -13.40725    8.82466    9.04403
       H   -16.72519    3.52964    5.08422
       O   -17.15490    4.00937    4.36557
      H1   -18.09359    3.70596    4.58356
       H   -16.72879   11.82165    4.94045
       O   -16.66311   10.83279    5.06947
      H1   -16.36501   10.82241    5.95577
       H   -16.05166    0.24829    4.05753
       O   -16.20402   -0.63401    4.24086
      H1   -16.49486   -0.64572    5.15627

