180
frame 1 | Written by MDAnalysis XYZWriter (release 2.4.3)
       H   -14.85398   14.57494    5.61559
       O   -14.19736   15.24230    5.72214
      H1   -13.67888   15.31195    4.90895
       H   -13.38870    8.37728   -2.49037
       O   -12.40913    8.55259   -2.46907
      H1   -12.08991    8.02090   -3.21440
       H    -5.09925    8.65962    7.81563
       O    -5.85462    9.11369    7.41342
      H1    -6.63042    8.51924    7.62525
       H   -11.55348   10.23152    0.98212
       O   -12.11662   10.85135    1.47512
      H1   -12.64575   11.21632    0.74169
       H   -14.19686   10.05362    6.87720
       O   -15.03917    9.54031    6.85894
      H1   -15.09883    9.27700    7.81500
       H   -10.75951    1.99830    2.08375
       O   -11.14762    2.19193    2.98327
      H1   -12.09934    2.01662    2.73446
       H    -9.28518   12.67996    9.20269
       O    -8.81832   11.89572    8.76868
      H1    -9.45011   11.17354    8.95199
       H    -9.97598    5.13384    8.87245
       O    -9.92661    6.05506    9.03331
      H1    -9.51205    6.03039    9.93802
       H   -18.79315    9.77348    7.02315
       O   -18.54069   10.66412    7.15818
      H1   -17.58891   10.59764    7.16974
       H   -15.62930   13.40664    3.81914
       O   -16.16396   13.47617    4.59645
      H1   -17.06811   13.70604    4.20359
       H   -10.87724   14.04336    9.68314
       O   -10.31425   14.29412    8.93003
      H1   -10.87705   13.98158    8.23015
       H   -11.11622    3.00956    7.57230
       O   -10.32961    3.46000    7.77583
      H1    -9.97615    3.61668    6.83049
       H   -11.54750    9.95194    8.28078
       O   -10.62528    9.91155    8.52588
      H1   -10.21495    9.42676    7.77823
       H    -8.91542   14.69712    3.59900
       O    -8.38379   14.14895    2.92740
      H1    -7.61126   13.92090    3.44887
       H    -7.89858    4.45147    5.49122
       O    -7.10738    4.45648    5.97114
      H1    -6.55148    4.89611    5.29860
       H    -5.22786    7.08562    3.80689
       O    -5.21697    6.11058    3.99635
      H1    -5.32789    5.77117    3.08169
       H    -6.17001    8.73756    0.94176
       O    -7.13380    8.69621    0.65760
      H1    -7.41483    7.86054    1.08091
       H   -10.85583    7.77420    0.85357
       O   -10.90382    8.58506    0.30142
      H1   -11.68076    8.38001   -0.18295
       H   -15.98234    7.36851    4.82709
       O   -15.52395    7.29786    5.70207
      H1   -15.30880    8.21147    6.02268
       H   -10.44084    8.44381   11.47035
       O   -10.98830    9.20749   11.61949
      H1   -11.34091    9.43899   10.71879
       H    -9.85054   10.94749   -1.75165
       O   -10.75819   11.08068   -2.12742
      H1   -11.09771   10.21221   -2.45229
       H   -10.71005    6.88330    3.23914
       O   -10.80210    6.63398    2.29374
      H1   -11.72617    6.23326    2.33434
       H   -17.82388    9.33509    3.64663
       O   -18.65114    9.49245    3.16764
      H1   -18.50297    9.05904    2.33885
       H    -7.76307   10.62482    0.57705
       O    -7.86195   11.58890    0.77640
      H1    -8.78703   11.61720    1.19937
       H    -8.04834    8.63899    3.68031
       O    -9.00655    8.77985    3.57434
      H1    -9.07999    9.67832    3.18693
       H    -6.21556    9.16651    5.32769
       O    -6.21986    8.97296    4.34511
      H1    -6.30424    9.87619    3.97362
       H    -7.65770   11.00803    9.99046
       O    -7.38100   10.77182   10.90446
      H1    -6.66674   11.40361   11.10939
       H   -11.75963    6.69882    9.16618
       O   -12.74936    6.75378    9.09011
      H1   -13.10983    5.95714    8.83870
       H    -8.86202    6.08207    1.86832
       O    -7.99431    5.96315    1.48110
      H1    -7.81995    5.04040    1.66415
       H    -5.57400   11.22325    7.65424
       O    -4.99040   11.95614    7.89350
      H1    -5.57805   12.72788    8.06778
       H   -10.01813   12.33923    3.14330
       O   -10.02536   11.33484    3.02550
      H1   -10.88938   11.31047    2.62610
       H   -15.03778    8.78978   -0.77590
       O   -14.27873    9.04449   -0.21497
      H1   -14.76257    9.40940    0.53763
       H   -12.68339   15.17490    3.07720
       O   -12.24464   15.66701    3.79103
      H1   -12.43533   16.55537    3.61995
       H    -6.64303   12.88385    5.26894
       O    -6.99587   12.02668    4.78881
      H1    -7.98416   11.97275    5.09086
       H    -7.36735    6.31582    6.95271
       O    -7.66697    7.04761    7.53439
      H1    -8.25033    6.61914    8.15929
       H   -12.62784   11.79090    6.49280
       O   -12.70886   10.79356    6.56429
      H1   -12.75824   10.53178    5.60765
       H   -16.08224    4.20570    0.95629
       O   -15.15415    4.05719    0.89565
      H1   -14.79551    4.93158    0.81982
       H   -16.31264    6.36366    6.94287
       O   -16.47789    5.64327    7.66415
      H1   -15.56812    5.51234    7.96658
       H   -11.85979    9.76470    3.09942
       O   -12.10828    9.39876    3.95977
      H1   -11.29223    9.00014    4.28296
       H   -15.71481   11.41653    0.96731
       O   -15.78864   10.56298    1.40065
      H1   -15.79528   10.79937    2.34306
       H   -16.19047    3.97497    3.86796
       O   -15.27651    3.99370    3.55607
      H1   -15.33616    4.11934    2.56135
       H    -9.17155   12.37856    7.09183
       O    -9.46484   12.30768    6.14802
      H1   -10.00750   11.54147    6.18077
       H    -9.60231   15.90484    5.52691
       O    -9.75682   16.19574    4.58002
      H1   -10.69388   16.00479    4.49563
       H   -15.77785    6.06816    2.88082
       O   -16.47790    6.66063    2.99351
      H1   -16.66902    6.89810    2.11892
       H   -10.03589    3.52953    4.15128
       O    -9.64861    3.90294    4.94572
      H1    -9.98958    4.76673    5.10267
       H    -8.21444    7.87656   -1.79964
       O    -9.13422    8.09235   -2.07803
      H1    -9.53684    8.25628   -1.22196
       H   -10.76274    6.88103    6.12008
       O   -10.78132    6.37498    5.30993
      H1   -11.73112    6.22553    5.27614
       H   -13.32804    6.20148   -0.05141
       O   -13.57025    6.43302    0.87795
      H1   -13.82659    7.38194    0.73820
       H   -13.88603    4.36207    7.45455
       O   -14.21280    4.45238    8.37622
      H1   -13.87162    3.63510    8.76794
       H   -14.31569    6.12146    5.74243
       O   -13.51900    5.55915    5.61568
      H1   -13.73851    5.21159    4.71055
       H   -14.06417   13.32659    2.05372
       O   -14.09715   12.64725    2.73611
      H1   -13.37249   12.08814    2.38151
       H    -8.98354    8.89409    5.39230
       O    -9.04575    8.82671    6.35911
      H1    -8.48696    8.05171    6.55792
       H    -9.57411   15.24591    0.34090
       O    -8.61508   15.27365    0.49559
      H1    -8.58117   14.80510    1.35698
       H   -13.45352   15.29530    0.64361
       O   -13.13197   14.57114    1.18107
      H1   -12.22330   14.54336    0.84429
       H   -13.78433   10.62521   11.52675
       O   -13.69075   10.92195   10.58871
      H1   -14.38485   11.55794   10.53382
       H   -11.31904    5.49093   -2.20377
       O   -10.66329    5.92217   -2.84114
      H1   -10.37252    6.70228   -2.28346
       H   -13.52086   10.59558   -0.84921
       O   -13.45438   11.55432   -0.88008
      H1   -12.55852   11.67384   -1.29821
       H   -12.61746   14.25202    6.33396
       O   -12.13028   13.50603    6.74035
      H1   -11.25830   13.41971    6.23558
       H   -14.43050    9.48364    9.85152
       O   -14.72256    8.61644    9.50260
      H1   -13.87995    8.10968    9.41096
       H   -15.99226   11.54778    4.18238
       O   -16.28343   10.58377    4.14402
      H1   -15.43328   10.17058    4.42948

