180
frame 6 | Written by MDAnalysis XYZWriter (release 2.4.3)
       H   -16.14672    6.54213   -4.04570
       O   -16.25884    5.95620   -3.22073
      H1   -15.45735    5.44699   -3.13342
       H   -12.31589   -2.99763   -4.47359
       O   -12.68303   -2.36348   -3.80664
      H1   -13.53284   -2.83645   -3.72790
       H   -12.82016    4.46760   -8.24406
       O   -13.73333    4.66000   -7.89260
      H1   -14.02162    3.79301   -7.56483
       H   -18.13282    1.94746   -7.19851
       O   -18.92821    1.92431   -7.75156
      H1   -18.94144    0.99690   -8.01461
       H   -14.17630    1.54949   -6.06240
       O   -14.25633    2.37927   -6.57682
      H1   -14.27083    2.03485   -7.49725
       H   -11.97631    8.11221   -2.44193
       O   -12.83773    7.65503   -2.41579
      H1   -13.10034    7.87983   -3.34160
       H   -10.79575   -2.33546   -0.15340
       O   -10.11507   -1.70605   -0.44567
      H1    -9.35980   -2.18453   -0.03183
       H   -12.29071    2.47144   -1.93049
       O   -11.84740    1.80027   -1.42744
      H1   -11.25642    1.26761   -1.99309
       H   -13.26269    1.22035    3.66729
       O   -14.22307    1.42749    3.65952
      H1   -14.21342    2.38473    3.57609
       H   -15.37077    3.98513   -0.93626
       O   -15.06250    3.59953   -0.09076
      H1   -15.87641    3.54754    0.43351
       H   -13.61047    1.22768   -1.25678
       O   -14.58551    1.28204   -1.28961
      H1   -14.73281    2.21280   -1.01103
       H   -13.59854    3.19644    5.53076
       O   -13.62047    2.67813    6.35028
      H1   -13.27855    1.84284    5.98544
       H   -13.03262    6.36812   -4.96890
       O   -12.44972    5.64050   -5.26061
      H1   -12.90987    5.57111   -6.16439
       H   -16.60510   -3.40903   -0.57859
       O   -16.92049   -3.09191   -1.39129
      H1   -17.88763   -2.88546   -1.26774
       H   -13.12159   -3.31972    0.73972
       O   -12.14558   -3.29822    0.53155
      H1   -11.64587   -3.41533    1.33843
       H   -13.82792   -0.92217   -5.17025
       O   -13.98688   -0.55515   -6.04777
      H1   -13.21667   -0.90569   -6.54573
       H   -11.32377   -1.96175    3.71984
       O   -10.62484   -2.13852    4.36670
      H1   -10.42587   -3.03001    4.16762
       H   -18.07892   -1.91211   -5.89702
       O   -18.73406   -1.96859   -5.15458
      H1   -18.21436   -2.10439   -4.33910
       H   -11.44170    1.16131    0.29211
       O   -11.21239    0.64529    1.07343
      H1   -10.56929    0.02658    0.71342
       H   -10.85514    6.24489    4.11314
       O   -10.06731    5.69415    4.10554
      H1   -10.02727    5.04101    3.34042
       H   -18.30779    0.69350   -0.48571
       O   -18.27843    0.92689    0.44877
      H1   -17.43225    0.49371    0.66699
       H   -17.03030    4.49231   -6.89905
       O   -17.24254    5.41450   -7.08531
      H1   -16.39742    5.67277   -7.52173
       H    -9.32780   -1.16492   -4.02252
       O    -8.61387   -0.96901   -4.68990
      H1    -7.94665   -0.68749   -4.03823
       H   -15.33229   -3.00209    2.06808
       O   -14.91744   -2.62317    1.28618
      H1   -15.33466   -1.76504    1.23450
       H   -15.93447    7.55399   -6.32493
       O   -16.01677    7.53672   -5.37108
      H1   -16.88009    7.84654   -5.26186
       H   -13.07310   -0.38383    5.08092
       O   -12.87903   -0.09058    5.93708
      H1   -12.19284   -0.63834    6.33942
       H   -17.19750   -1.24588   -7.67370
       O   -16.49962   -1.60439   -7.19306
      H1   -15.97560   -0.81529   -7.02299
       H   -15.25729    0.27793    0.22522
       O   -15.55086   -0.05099    1.12210
      H1   -14.87592    0.29445    1.70705
       H   -17.48435    3.67145    2.52410
       O   -17.35255    3.55871    1.57970
      H1   -17.75005    2.71228    1.29814
       H   -12.58263    4.04375   -4.58232
       O   -12.63803    3.12029   -4.17460
      H1   -11.64430    3.14209   -4.02975
       H   -15.86046    2.82468   -6.50449
       O   -16.86145    2.89337   -6.37337
      H1   -16.90931    3.05447   -5.39949
       H   -11.15800    1.39038    2.72041
       O   -11.37212    2.11653    3.37136
      H1   -10.55525    1.95087    3.91013
       H   -15.91191   -1.47061   -2.34864
       O   -15.94937   -0.62850   -2.80510
      H1   -15.23487   -0.10633   -2.42370
       H   -13.52147    5.34429    1.10454
       O   -13.82140    6.02833    1.77190
      H1   -13.31106    6.75627    1.44221
       H   -18.75274    0.13891    4.50545
       O   -18.80177   -0.34598    3.63764
      H1   -17.87007   -0.69289    3.67414
       H   -10.76350    6.41064   -5.15553
       O    -9.83065    6.40525   -4.87631
      H1    -9.83093    6.37416   -3.89880
       H    -9.50308    3.68417    1.51842
       O   -10.17661    4.12453    1.99458
      H1   -10.60008    3.36894    2.47980
       H    -8.33018    3.23345   -0.79785
       O    -8.63026    4.01165   -0.31184
      H1    -8.74892    4.73254   -0.96824
       H   -15.25204    4.32461    3.50934
       O   -14.35403    4.44258    3.81679
      H1   -14.04629    5.09866    3.21040
       H   -13.51037   -2.06432    2.87333
       O   -12.83661   -1.33456    3.02596
      H1   -12.88232   -0.83400    2.16397
       H   -10.75612    2.78207   -5.99197
       O   -11.18563    2.08141   -6.59027
      H1   -12.06537    2.12904   -6.18514
       H   -17.75575    2.44820   -3.07277
       O   -17.25019    3.02961   -3.70117
      H1   -17.78367    3.87659   -3.70633
       H   -16.20956    6.95477    2.67377
       O   -16.35365    7.54212    3.42785
      H1   -16.65407    8.33778    2.88048
       H   -15.57057   -2.86030   -5.23335
       O   -15.31202   -3.25911   -4.38323
      H1   -15.69813   -4.12057   -4.39267
       H   -16.41510    7.38976   -1.81345
       O   -16.69361    8.00014   -1.12218
      H1   -17.11494    7.30612   -0.58000
       H   -18.46324   -0.43383   -5.01755
       O   -18.18648    0.47916   -5.10060
      H1   -17.31894    0.45969   -4.67313
       H   -11.70767    7.79748    0.60101
       O   -12.54125    8.21464    0.75637
      H1   -13.00704    8.17827   -0.10383
       H   -14.29090    7.04348    5.67440
       O   -13.58222    6.43637    5.46151
      H1   -14.00414    5.80883    4.94549
       H   -18.07712    8.17939   -2.96881
       O   -18.23659    8.42336   -3.90052
      H1   -18.01403    9.36463   -3.75814
       H   -10.93662    4.63261    0.51849
       O   -11.43104    5.16645   -0.09819
      H1   -11.52264    4.55230   -0.80258
       H   -16.84454   -5.73821   -3.16453
       O   -17.41098   -4.99793   -3.29355
      H1   -17.06179   -4.28651   -2.72056
       H   -10.80463   -0.80555   -2.22187
       O   -11.03013   -0.29861   -3.02913
      H1   -11.68224   -0.90286   -3.47462
       H   -14.45479    3.30281   -3.37412
       O   -14.84203    3.89234   -2.72448
      H1   -15.79674    3.64524   -2.92214
       H   -17.55809    0.33916   -2.38004
       O   -18.34028    0.83709   -2.22266
      H1   -19.00377    0.56631   -2.86879
       H   -10.11263    6.16232   -1.24855
       O    -9.43165    6.21776   -1.89403
      H1    -8.61893    6.47949   -1.38044
       H   -19.37262    5.93481   -3.66926
       O   -18.94757    5.35873   -4.34169
      H1   -18.25340    5.89350   -4.60874
       H   -18.15535    4.99087    0.64138
       O   -18.42851    5.90852    0.44360
      H1   -19.17167    5.99384    1.05473
       H    -8.68346    3.50677   -5.00162
       O    -9.62761    3.56557   -4.79798
      H1    -9.75655    4.56681   -4.79172
       H   -16.72519    3.52964    5.08422
       O   -17.15490    4.00937    4.36557
      H1   -18.09359    3.70596    4.58356
       H   -16.05166    0.24829    4.05753
       O   -16.20402   -0.63401    4.24086
      H1   -16.49486   -0.64572    5.15627

