180
frame 0 | Written by MDAnalysis XYZWriter (release 2.4.3)
       H   -13.18292    6.90435   14.51152
       O   -12.64234    6.59382   15.21758
      H1   -12.01998    7.35077   15.35960
       H   -17.91946    5.44898   10.20193
       O   -17.70844    6.16031    9.55639
      H1   -17.40468    5.75695    8.76130
       H   -15.24278    4.11699   19.35919
       O   -15.24421    3.17820   19.17294
      H1   -15.99453    2.95194   18.63868
       H   -18.91433    3.49901   11.79750
       O   -18.39321    3.71180   10.99568
      H1   -17.67299    3.04093   11.05099
       H   -15.03272    7.83112   10.11821
       O   -15.32027    6.97389   10.60490
      H1   -16.20129    6.85557   10.22850
       H   -17.02768   -0.74389   12.14561
       O   -16.42894   -0.25992   12.74360
      H1   -17.02731   -0.23369   13.53337
       H   -17.67568    3.23255   17.08519
       O   -17.08794    2.50073   16.89112
      H1   -16.35465    2.95869   16.45729
       H   -13.38093    9.00154   12.63864
       O   -13.48951    9.96892   12.64331
      H1   -12.59424   10.16909   12.96753
       H   -10.26069    4.70283   15.29467
       O   -10.63346    4.73991   14.40590
      H1   -11.25604    5.48434   14.53528
       H    -9.20207    2.76637   16.85213
       O   -10.03858    2.55691   16.46165
      H1   -10.64305    3.09469   16.96506
       H   -18.50599   -1.83881   14.12731
       O   -18.48563   -2.15801   13.22519
      H1   -18.17655   -3.06308   13.42608
       H   -13.75119   -0.90480   10.39922
       O   -13.35532   -1.49377    9.73087
      H1   -14.16608   -1.91918    9.42921
       H   -15.30672    7.55780   13.44503
       O   -14.59775    6.96802   13.12815
      H1   -14.83044    7.01679   12.24455
       H   -14.16698    3.56413   16.53371
       O   -14.82352    4.14570   16.15180
      H1   -14.69764    4.96105   16.62545
       H   -19.12505    5.87421   17.57654
       O   -18.20573    6.07676   17.26852
      H1   -18.25146    6.98159   16.95438
       H   -18.35584    9.97506    6.95293
       O   -17.82729   10.76424    7.14318
      H1   -16.98132   10.44573    7.36491
       H   -15.22265    9.70481   14.17291
       O   -15.98662    9.09711   14.08885
      H1   -16.43836    9.57638   13.35763
       H   -13.42098    8.89069   17.90425
       O   -12.56984    9.40341   17.96110
      H1   -12.06080    8.73942   18.49627
       H   -14.06883    1.85172   19.03104
       O   -13.36596    1.16021   18.82513
      H1   -13.85428    0.41745   19.02206
       H   -12.57469    1.60119    9.61235
       O   -12.30441    2.23207    8.90103
      H1   -12.12057    1.60656    8.20310
       H   -10.34034    1.86378   12.86921
       O    -9.84642    1.34021   13.50548
      H1    -9.61863    0.55216   13.01024
       H   -11.55131    7.63707   10.75723
       O   -11.44669    8.49601   11.26198
      H1   -11.31427    9.13799   10.52940
       H   -17.40598    1.00437   15.52912
       O   -17.31275    0.07030   15.25764
      H1   -16.40062   -0.13407   15.57322
       H   -18.20196    7.32254   14.17541
       O   -18.94403    7.94022   14.24486
      H1   -19.69647    7.36394   14.00935
       H   -18.78913   10.57397    9.74346
       O   -18.54961    9.64669    9.94299
      H1   -17.72820    9.65991    9.42764
       H   -19.32108    7.27446    4.44422
       O   -18.83786    6.53506    4.91256
      H1   -19.61293    5.94433    5.07234
       H   -18.64684   -0.24015   17.10390
       O   -19.34929   -0.75404   17.57323
      H1   -18.90977   -1.62112   17.36337
       H   -17.23046    4.49363   14.34467
       O   -18.07350    4.81159   14.69538
      H1   -17.91771    5.36950   15.51478
       H   -18.18574   -5.70727   13.65618
       O   -18.36590   -4.86504   14.14653
      H1   -17.77548   -4.75171   14.81651
       H   -13.98473   -0.37264   14.81316
       O   -14.47773   -0.00128   15.57332
      H1   -13.85096    0.75289   15.75294
       H   -11.48436    6.56513    8.66416
       O   -12.36803    6.77173    9.19409
      H1   -12.74313    5.85424    9.12866
       H   -18.29870    9.94672   11.84377
       O   -18.41372   10.07888   12.85926
      H1   -18.80677    9.21198   13.12796
       H   -15.68974    2.68453   12.48609
       O   -15.72687    1.98884   11.80147
      H1   -16.32953    1.32495   12.22001
       H   -15.77365    2.25293    8.44135
       O   -16.23752    1.51094    8.06423
      H1   -16.71218    1.96601    7.31223
       H   -15.49381    8.99978   19.37931
       O   -15.35491    8.70841   18.43982
      H1   -15.50282    7.73719   18.50961
       H   -18.67553    0.77261    5.12153
       O   -18.60965    0.85209    4.17441
      H1   -17.63697    0.82321    4.03854
       H   -15.24370    5.12521   13.23906
       O   -15.68214    4.28444   13.48050
      H1   -15.23244    4.08483   14.34605
       H   -15.65121    5.83058    6.48042
       O   -16.04713    5.53064    7.32250
      H1   -15.23315    5.27792    7.76870
       H   -15.42413   12.10919   12.71260
       O   -15.08470   12.33842   13.58449
      H1   -15.90981   12.22941   14.06668
       H   -13.21263    5.78584   18.28425
       O   -13.74205    6.28900   17.61922
      H1   -13.32075    6.32946   16.77443
       H   -18.29246    0.85190   10.07344
       O   -18.19848   -0.06358    9.82334
      H1   -17.44145   -0.07377    9.13161
       H   -15.87319   -3.35284    8.01308
       O   -15.92031   -2.38238    8.16977
      H1   -15.45585   -2.00786    7.43179
       H   -13.17584    4.76543    7.17497
       O   -13.48287    4.64387    8.09501
      H1   -12.91420    3.84729    8.26489
       H   -15.41178   -1.17392   17.83066
       O   -14.49485   -1.53630   17.87587
      H1   -14.13463   -1.03991   17.05474
       H   -12.99656   -0.08936   11.91740
       O   -13.22954    0.68897   11.45841
      H1   -14.01180    1.03095   11.91889
       H   -12.06187    2.43949   11.71435
       O   -11.39421    3.05798   12.07924
      H1   -11.84232    3.53314   12.79926
       H   -20.13411   -3.88940    7.76593
       O   -19.39940   -3.26458    7.89724
      H1   -18.74415   -3.73224    8.34873
       H   -17.89226   11.34030   14.00810
       O   -17.63170   12.08912   14.69140
      H1   -18.24880   12.82508   14.57154
       H   -16.66598   12.27466   17.49364
       O   -17.64075   12.40747   17.48308
      H1   -17.75857   12.12936   16.50387
       H   -16.77981    4.04029    6.76925
       O   -17.35464    3.26718    6.51442
      H1   -18.05343    3.41811    7.10532
       H   -19.36950    8.27614    7.90814
       O   -19.29099    8.65308    6.99304
      H1   -19.20422    7.80605    6.49730
       H   -13.17506   -2.11101   12.39890
       O   -13.60059   -1.56741   13.16470
      H1   -14.51028   -1.52195   12.85825
       H   -19.27398    3.97554   13.69881
       O   -19.83340    3.31477   13.20145
      H1   -19.47562    2.47647   13.55781
       H   -19.66383    4.58913    7.93930
       O   -19.36894    3.68204    8.05227
      H1   -18.76142    3.77677    8.82653
       H   -18.88942   -3.49089   16.62395
       O   -17.98125   -3.20208   16.89428
      H1   -17.88390   -3.69084   17.74796
       H   -13.10936    1.54606   17.25599
       O   -12.91865    2.11216   16.44779
      H1   -11.95698    2.11890   16.39017
       H   -13.52314    9.79353    9.71061
       O   -14.07653    9.02221    9.42107
      H1   -13.30244    8.37764    9.19675
       H   -17.06064    8.82976   15.78307
       O   -17.43317    8.69807   16.65260
      H1   -16.75581    9.07814   17.21516
       H   -17.67973    3.69561    4.82392
       O   -17.50361    4.06465    3.88756
      H1   -17.82462    5.03421    3.93957
       H   -14.88660    1.17184    4.86596
       O   -15.63647    0.70550    5.31523
      H1   -15.58018    0.88722    6.25808

