180
frame 11 | Written by MDAnalysis XYZWriter (release 2.4.3)
       H    15.18438   -6.18918  -18.38301
       O    15.52689   -6.14412  -19.28860
      H1    14.70482   -6.20002  -19.80989
       H     7.07406    0.79413  -18.36719
       O     7.25900    1.12489  -19.27679
      H1     8.21090    1.08191  -19.28775
       H    11.54426    4.00112  -18.14312
       O    10.84634    4.29712  -17.56104
      H1    10.48984    3.44919  -17.21296
       H     9.30804   -6.48463  -18.85904
       O    10.21991   -6.86337  -18.93365
      H1     9.91200   -7.80889  -19.02716
       H     9.19167   -3.91264  -12.08549
       O     8.88076   -3.03830  -11.87507
      H1     9.61490   -2.44868  -12.13902
       H    12.43822    8.88794  -13.75444
       O    11.98093    8.34616  -14.43005
      H1    12.73463    7.72399  -14.53526
       H    11.92166   -4.13807  -16.94445
       O    12.58449   -4.19506  -16.19090
      H1    12.50727   -5.12997  -15.93993
       H    13.53284   -0.12739  -10.26334
       O    12.90704   -0.25110  -11.00013
      H1    12.65411   -1.16466  -10.99077
       H     5.57158   -0.98490  -14.39275
       O     6.10370   -1.36007  -13.69006
      H1     6.66839   -0.66257  -13.41128
       H     7.48289    0.91482  -12.62948
       O     8.13634    0.48662  -13.22345
      H1     8.72512    1.25482  -13.27958
       H    12.11276    8.44149  -19.45409
       O    12.19415    7.53000  -19.11486
      H1    13.11958    7.41638  -19.02549
       H    12.67704   -3.95544  -11.40962
       O    12.47239   -3.04031  -11.71299
      H1    12.02496   -3.18443  -12.56296
       H    16.05553    6.83124  -15.64586
       O    16.96552    6.37382  -15.75102
      H1    17.50325    6.90597  -15.12753
       H    13.67198    5.07469  -19.37224
       O    13.47098    4.28318  -18.85457
      H1    13.37374    3.60929  -19.54505
       H    14.90066    1.51703  -11.47322
       O    14.58246    2.33188  -11.87059
      H1    15.17512    2.93912  -11.42052
       H     8.79946    7.00785  -18.34082
       O     8.36366    7.30910  -17.57850
      H1     9.05916    7.90578  -17.20176
       H    10.74189   -0.67548  -15.54610
       O    10.22177   -1.17706  -16.20857
      H1     9.51315   -1.56387  -15.67428
       H     5.86890    0.35535  -15.99587
       O     4.96027    0.06565  -15.68041
      H1     4.67592    0.98892  -15.43894
       H     8.82194    2.94905  -11.25965
       O     9.30738    2.71080  -12.02591
      H1    10.18105    2.51534  -11.71402
       H    14.64060    5.33916  -13.31062
       O    13.85406    5.79949  -12.97083
      H1    13.21628    5.68093  -13.67523
       H    10.81176    1.61028  -16.26028
       O     9.93679    1.68490  -16.70139
      H1     9.36265    0.91622  -16.46347
       H    15.65772    3.84336  -14.29505
       O    16.16954    4.67903  -13.95911
      H1    16.29010    5.22696  -14.77992
       H    13.01912    4.79843  -15.99891
       O    12.50470    4.74377  -15.20711
      H1    11.59879    4.89538  -15.52054
       H    15.31393   -3.24966  -18.45290
       O    15.90478   -3.45534  -19.22992
      H1    15.61756   -4.35642  -19.41192
       H     9.51785   -6.43007  -14.27967
       O     9.21560   -5.50245  -14.45223
      H1     8.45927   -5.52186  -13.85583
       H    19.12669    8.82554  -18.72035
       O    18.46540    8.31394  -18.25132
      H1    19.08579    7.59822  -18.02882
       H    13.91996   -3.06964  -16.48500
       O    14.65706   -2.39250  -16.81464
      H1    15.33757   -2.53537  -16.10954
       H     3.63141    3.31354  -19.63088
       O     3.02770    2.76797  -19.07530
      H1     2.27134    3.29877  -18.83145
       H    16.54950   -1.76427  -14.79276
       O    16.45701   -2.72934  -14.82920
      H1    16.07256   -3.04361  -13.92838
       H     9.36789    8.10478  -12.92239
       O     9.59861    7.34980  -13.45801
      H1    10.51258    7.51227  -13.71511
       H     6.76055    4.60672  -16.04194
       O     6.36871    5.31460  -16.65322
      H1     7.15837    5.90034  -16.73535
       H     8.17030    3.88006  -14.69274
       O     7.33636    3.41707  -14.97548
      H1     6.59364    3.74730  -14.44290
       H    15.17768   -4.07737  -11.70660
       O    15.26065   -3.87570  -12.68989
      H1    14.42226   -3.34600  -12.78773
       H    10.63356   -2.48692  -17.72542
       O    10.78343   -3.20898  -18.31114
      H1     9.88834   -3.35999  -18.70168
       H     9.49850   -0.59273  -12.73003
       O    10.40695   -0.89939  -12.52361
      H1    10.50548   -0.33071  -11.73835
       H    11.69510   -3.75277  -14.85167
       O    11.19578   -3.85044  -14.02498
      H1    10.54267   -4.49749  -14.28078
       H    14.90312    3.14638  -18.38421
       O    15.58076    2.52007  -18.12015
      H1    15.12728    1.65411  -17.99227
       H     4.34187    2.66993  -14.17938
       O     4.44626    2.67032  -15.16630
      H1     3.49838    2.83908  -15.45950
       H    18.98432    5.63606  -16.31957
       O    19.88340    5.63223  -16.62592
      H1    19.86185    5.32637  -17.60671
       H    10.64066    8.90401  -15.71451
       O     9.99342    9.12983  -16.41742
      H1     9.33988    9.66239  -15.96583
       H    15.53503    8.71516  -14.81070
       O    14.82499    8.17160  -15.23298
      H1    14.70766    8.51569  -16.11300
       H    10.01627   -0.63240  -18.83730
       O     9.99233    0.28660  -19.05951
      H1     9.99815    0.69730  -18.19244
       H    13.46872   -8.19625  -18.16328
       O    12.76539   -7.82069  -17.58088
      H1    12.30863   -7.26565  -18.26907
       H    17.72966   -3.69794  -16.56554
       O    18.11442   -3.82421  -17.44660
      H1    17.30601   -3.79137  -17.98892
       H    14.50065    9.64286  -18.43667
       O    14.87172    8.84056  -17.93701
      H1    15.26449    8.30403  -18.65343
       H     5.25991   -3.60174  -15.73866
       O     5.80319   -3.97179  -14.96471
      H1     6.28091   -3.14940  -14.67838
       H     9.91710    5.53663  -14.36631
       O     9.78216    4.58830  -14.47773
      H1    10.13880    4.14772  -13.68761
       H    13.15444    2.30253  -15.69664
       O    12.56124    1.53103  -15.94027
      H1    12.62668    1.05838  -15.05789
       H     7.66364    1.61609  -15.92072
       O     7.52670    0.65318  -16.03082
      H1     7.56147    0.35877  -15.11654
       H    13.27527   -0.16540  -13.03230
       O    12.71660   -0.26477  -13.79908
      H1    11.86879   -0.57598  -13.37547
       H    14.06300   -0.90372  -17.60127
       O    14.01929    0.09513  -17.75793
      H1    13.41879    0.47380  -17.05575
       H    18.47019    1.52455  -17.47567
       O    17.77597    1.73939  -16.81658
      H1    17.00681    2.02626  -17.42053
       H    11.43555    4.54563  -11.42276
       O    11.90932    3.71963  -11.44821
      H1    12.82798    3.90156  -11.61285
       H     5.90791    7.79383  -20.03813
       O     5.98799    7.71926  -19.06186
      H1     6.92439    7.77866  -18.83838
       H    12.81522    0.80463  -18.85505
       O    12.44900    1.42301  -19.51288
      H1    11.50895    1.37737  -19.35497
       H     6.76667    4.78653  -18.73186
       O     7.28230    4.54800  -19.52868
      H1     7.48401    3.61518  -19.19747
       H    17.99873   -0.01588  -14.42735
       O    17.15608   -0.09868  -14.95769
      H1    17.43151    0.51685  -15.65803
       H     7.08841   -0.83489  -19.29283
       O     6.69168   -1.68132  -19.07999
      H1     5.74683   -1.49329  -19.20642
       H    15.72902    1.75867  -14.93099
       O    14.97077    2.31291  -14.76805
      H1    14.63683    2.01888  -13.95855
       H     7.91469   -2.30947  -13.88990
       O     8.42014   -2.35910  -14.74461
      H1     9.17166   -2.97727  -14.49294

