180
frame 11 | Written by MDAnalysis XYZWriter (release 2.4.3)
       H     9.11405   14.07344   -6.70271
       O     9.85930   14.59223   -6.39560
      H1     9.51058   14.99327   -5.57057
       H     5.24816    9.21789   -5.60204
       O     4.37760    9.11209   -5.23837
      H1     3.82221    8.87333   -6.02591
       H     0.35621   10.32384    0.92257
       O     1.17188    9.89239    1.30000
      H1     1.73205    9.87727    0.50836
       H     4.96299   11.87858   -3.38052
       O     5.88931   11.45503   -3.23363
      H1     6.18585   11.50008   -4.15672
       H     9.19919   16.27252    0.60155
       O     8.84484   16.02317   -0.27689
      H1     8.05662   16.57456   -0.37818
       H     9.59858   11.72851    0.30074
       O     8.66976   11.85767    0.12998
      H1     8.48248   12.76039    0.29658
       H     1.13351   15.66848   -2.22517
       O     1.96447   16.17498   -1.96945
      H1     1.54167   16.98420   -1.77697
       H     1.85763   18.23434   -4.23716
       O     1.16586   18.26401   -4.85317
      H1     1.28705   17.40749   -5.33392
       H     0.92224    6.60836   -3.53594
       O     1.71631    6.46290   -4.06275
      H1     2.21762    5.80785   -3.51686
       H     3.51077   14.22104    1.42100
       O     3.10735   13.94541    2.25851
      H1     3.76491   13.36409    2.60978
       H     2.84119   11.64174   -1.39263
       O     2.21974   11.95520   -2.02171
      H1     1.90467   11.16650   -2.43708
       H    11.31632   11.28576   -2.64864
       O    12.23597   11.01149   -2.88353
      H1    12.73297   10.99419   -2.03769
       H     6.81632    6.87703   -0.02048
       O     6.60819    5.91941   -0.04339
      H1     5.65002    5.89881   -0.11828
       H     5.55599   10.28570   -1.04082
       O     5.61786    9.41867   -1.45697
      H1     5.68768    9.75662   -2.35081
       H     8.59538   13.39090   -2.36861
       O     8.00567   14.17937   -2.28586
      H1     8.41041   14.48356   -1.49876
       H     1.09677   13.81336   -8.79447
       O     0.24775   13.43296   -8.64575
      H1    -0.12772   14.11320   -8.07077
       H     4.68439   11.47320    0.52953
       O     4.03025   11.80097   -0.13439
      H1     3.77889   12.63604    0.32944
       H     0.99375   12.74950   -0.71597
       O     0.15826   12.69410   -0.22743
      H1     0.32324   13.32856    0.51095
       H    -0.15402   13.85446   -1.63898
       O    -0.23432   14.65092   -2.18112
      H1    -0.28099   14.28346   -3.11262
       H     8.35159   19.07111   -3.20709
       O     7.81959   18.26525   -3.51926
      H1     8.45396   17.68506   -3.93520
       H    11.26328   13.24183   -5.27514
       O    11.98573   13.39684   -4.59549
      H1    11.99000   12.52869   -4.09360
       H     0.63950   10.63813   -8.15897
       O     0.09056   11.12103   -7.50651
      H1     0.08587   12.00779   -7.97310
       H     2.71708   11.95287   -5.31756
       O     2.69068   11.42669   -6.14760
      H1     1.74360   11.43176   -6.32322
       H     0.26411   14.62637   -5.36286
       O     0.14257   13.94156   -4.70727
      H1    -0.58485   13.37467   -5.17261
       H     4.77682    7.26008   -3.82259
       O     4.81706    6.46883   -3.23954
      H1     5.78189    6.19463   -3.40858
       H     7.40825    5.48469   -2.00699
       O     7.66496    5.26451   -2.90316
      H1     8.39541    5.84748   -3.18599
       H     3.75053   17.11645    1.32793
       O     3.67190   17.46778    0.40512
      H1     3.39005   16.64867   -0.07024
       H     3.89892   16.37979   -5.47974
       O     3.57988   15.43423   -5.63670
      H1     3.45138   15.34607   -6.55972
       H     4.43048    9.61902  -10.25644
       O     5.07955   10.29331  -10.20722
      H1     4.60455   11.04453   -9.79557
       H     6.37747   10.88798   -7.73555
       O     6.99861   10.73377   -8.52138
      H1     6.32537   10.43067   -9.16256
       H     8.96315   11.49123   -1.89081
       O     9.41027   11.65042   -2.72766
      H1     9.05705   11.04360   -3.45152
       H     8.70412   10.50361   -5.80645
       O     8.51116    9.92415   -5.01659
      H1     8.96146    9.15450   -5.30301
       H     4.02373    6.25051    1.00766
       O     4.03992    6.09536    1.93240
      H1     4.50476    5.26596    2.05808
       H     4.82389   14.02756   -2.94944
       O     5.16222   14.82741   -2.53273
      H1     6.07882   14.43679   -2.45801
       H     8.30343   13.09388    3.58840
       O     7.75757   13.90884    3.24657
      H1     6.83690   13.52240    3.33721
       H    -1.78753   10.04611   -0.58462
       O    -2.16164   10.95516   -0.64857
      H1    -1.34224   11.42501   -0.51456
       H     2.62919   15.16728   -0.84677
       O     3.31789   14.60772   -0.32641
      H1     3.87690   14.35909   -1.06237
       H     7.26502   11.17024    0.97283
       O     6.39706   10.79143    1.10809
      H1     6.56153   10.12466    1.77256
       H     9.76218    6.94110   -6.02121
       O     9.05557    7.04253   -5.35628
      H1     8.52106    6.17514   -5.48145
       H     7.40870    8.66370   -6.31735
       O     6.70526    8.59449   -6.90677
      H1     6.81603    9.27897   -7.62106
       H     1.86689    5.80910   -5.78845
       O     1.68360    5.59171   -6.71962
      H1     0.74273    5.88546   -6.81270
       H    -2.30264   12.87080   -4.61772
       O    -1.85554   12.43628   -5.38498
      H1    -2.44057   12.48364   -6.18651
       H     8.59445    7.97060   -0.91300
       O     8.14298    8.23378   -0.10486
      H1     7.45845    8.78059   -0.40571
       H     4.55209    8.11265   -0.86163
       O     4.06198    7.27252   -0.70306
      H1     4.28683    6.81306   -1.51862
       H    10.60409   12.07883   -7.68756
       O     9.68524   11.74217   -7.51740
      H1     9.37852   11.38337   -8.40390
       H     6.78188   14.67025    1.09267
       O     6.84267   13.88824    0.54768
      H1     6.38508   14.15941   -0.28202
       H     4.61997    4.78077   -4.11960
       O     4.45147    4.01678   -4.67489
      H1     5.24056    3.47880   -4.54263
       H     0.95584    8.30272   -0.17713
       O     1.41097    8.12126   -1.01585
      H1     2.25862    7.82030   -0.71413
       H     4.32553   13.45597   -8.56995
       O     4.56301   12.64330   -9.01161
      H1     5.11849   12.98473   -9.70441
       H     2.98636   12.97271   -3.63013
       O     3.79476   13.17140   -4.09989
      H1     3.68809   14.00660   -4.58402
       H     1.43506    8.83764   -3.07960
       O     1.73248    9.52024   -3.66088
      H1     2.61140    9.29324   -3.98709
       H     4.93386   11.95282   -6.82543
       O     5.53982   11.46877   -6.31155
      H1     4.99695   10.69658   -6.04241
       H     5.63590   17.56308   -8.34922
       O     5.48629   16.62653   -8.29765
      H1     6.24787   16.24400   -8.81632
       H     3.53092   17.36102   -2.91565
       O     3.71594   18.31566   -3.10006
      H1     3.66229   18.63695   -2.19409
       H     1.84173    7.46652   -6.98379
       O     2.20383    8.36669   -6.87298
      H1     1.49820    8.83735   -6.38703
       H     2.20746   16.03478   -9.15337
       O     2.64987   15.43050   -8.52389
      H1     3.51165   15.87865   -8.51416
       H     8.43922   15.45946   -3.63312
       O     9.13605   15.95484   -4.09896
      H1     9.87054   15.87234   -3.48000
       H    -0.18972    9.85433   -6.26882
       O    -0.52839    9.30119   -5.53354
      H1     0.03219    9.58648   -4.77610
       H     5.80525   12.13962    2.25970
       O     5.41137   12.56316    3.02758
      H1     5.40036   11.84729    3.65819
       H     6.87967   17.81139   -2.04806
       O     6.47430   17.26233   -1.32006
      H1     5.93653   16.60787   -1.85175

