180
frame 5 | Written by MDAnalysis XYZWriter (release 2.4.3)
       H   -19.11617  -10.67844   16.34272
       O   -18.40845  -10.56449   17.09481
      H1   -17.58537  -10.96510   16.79698
       H    -9.18925  -10.73010   11.67803
       O    -9.75138  -10.35674   10.95278
      H1   -10.10559   -9.65697   11.49325
       H   -14.41800  -10.17610   10.24172
       O   -13.65814   -9.95199    9.70718
      H1   -14.05145   -9.23558    9.22436
       H   -12.38001   -2.01730   16.53063
       O   -12.52918   -1.18693   16.09905
      H1   -12.27706   -1.21402   15.17941
       H    -8.27668  -10.96917   15.05832
       O    -7.58847  -10.55110   15.64542
      H1    -6.87836  -10.53188   14.98330
       H    -6.92468   -5.28983   14.66442
       O    -6.37176   -4.79441   14.00439
      H1    -6.50264   -3.82518   14.27502
       H   -18.52909   -7.65878   18.17246
       O   -19.10242   -8.05128   17.52963
      H1   -18.70140   -8.96608   17.38577
       H   -12.69984  -10.89200   13.51330
       O   -13.28952  -10.23539   13.92808
      H1   -13.96863  -10.89607   14.35702
       H   -10.25364    1.27498   16.29375
       O   -10.80158    1.87389   15.82482
      H1   -10.71971    2.67494   16.41492
       H   -13.35985   -4.34232   15.43288
       O   -13.16614   -3.96767   16.29776
      H1   -13.81780   -4.38330   16.85942
       H   -12.68499  -13.22538   17.29104
       O   -12.05518  -13.67011   16.78161
      H1   -11.27792  -13.12535   16.93948
       H    -7.94244   -9.27892   14.30739
       O    -8.26373   -8.59991   13.67803
      H1    -9.18865   -8.77901   13.74954
       H   -15.15701  -14.87757   16.25541
       O   -15.83131  -14.30319   15.93748
      H1   -15.38337  -13.86198   15.18642
       H    -6.95391   -5.53980   17.64245
       O    -7.07701   -4.64387   17.96887
      H1    -8.03696   -4.51185   17.93132
       H    -9.62966   -1.92692   18.80426
       O   -10.23184   -2.33244   18.11698
      H1   -11.13600   -2.05370   18.38490
       H   -13.65241    1.33163   17.66066
       O   -13.56507    0.80527   18.49060
      H1   -13.87606    1.35098   19.20231
       H    -7.90541   -7.38015   15.31481
       O    -8.00704   -6.43428   15.43924
      H1    -8.65138   -6.28131   14.80351
       H    -6.25392   -8.76987   18.02986
       O    -6.08017   -8.60118   17.06380
      H1    -6.65785   -9.37718   16.78428
       H   -11.32045    0.85112   13.14587
       O   -11.45201   -0.07643   13.38866
      H1   -10.62357   -0.50700   13.11189
       H   -17.72511    2.64434   13.97872
       O   -17.85497    1.72364   14.22353
      H1   -17.55860    1.71324   15.13284
       H    -9.59279   -6.54101   16.40110
       O   -10.46714   -6.32811   16.77689
      H1   -10.83328   -7.17410   17.11714
       H   -19.95658   -5.46326   11.56043
       O   -19.64289   -4.55572   11.83240
      H1   -18.81264   -4.84346   12.22091
       H   -11.44202   -5.49873   11.23620
       O   -11.49377   -6.45222   11.17452
      H1   -11.46484   -6.63833   10.22276
       H   -10.07560   -3.78545   15.11840
       O    -9.62807   -2.95779   15.36953
      H1   -10.03535   -2.79954   16.22095
       H   -17.84800    2.15425   17.88103
       O   -18.70345    1.68953   17.91441
      H1   -18.32868    0.80887   17.82162
       H   -15.65217  -12.50771   10.87430
       O   -15.53210  -11.56910   11.13676
      H1   -16.27196  -11.44717   11.76191
       H   -16.47021   -3.92549   16.31094
       O   -17.07161   -3.51704   15.71024
      H1   -16.45096   -2.92762   15.16380
       H   -14.75762   -0.12005   17.02733
       O   -15.27583   -0.75122   16.56531
      H1   -14.52485   -1.37604   16.43891
       H   -15.37884   -4.78509   18.73943
       O   -14.84342   -4.98935   17.94525
      H1   -14.77292   -5.95554   17.88260
       H   -18.42733   -7.54142   12.47360
       O   -17.66897   -6.95418   12.44310
      H1   -17.12125   -7.45038   11.79879
       H   -14.29049   -8.40539   16.19029
       O   -14.15078   -9.23098   16.71906
      H1   -13.27338   -9.50068   16.24748
       H   -14.15434   -7.47226   19.57057
       O   -13.54560   -7.55150   18.75644
      H1   -13.99829   -8.20000   18.26674
       H   -11.85841   -7.74973   14.58948
       O   -12.47984   -7.23269   15.09704
      H1   -11.79064   -6.76686   15.58421
       H    -8.17796   -0.03302   16.33989
       O    -8.95490   -0.26074   16.98115
      H1    -9.28098   -1.12757   16.70588
       H   -11.82622  -13.20479   13.04523
       O   -12.06645  -12.31781   12.87090
      H1   -12.10299  -12.23057   11.89589
       H   -15.07114   -2.98712   12.76571
       O   -14.70408   -2.94641   11.89571
      H1   -13.90773   -3.48176   12.01138
       H    -9.91238  -11.34198   17.68627
       O    -9.74721  -12.24642   17.38255
      H1    -9.19637  -12.55335   18.10678
       H   -13.17125   -5.53378   14.04702
       O   -14.01054   -5.07466   13.84073
      H1   -14.62810   -5.70042   14.32225
       H   -11.83453   -8.07172   12.60551
       O   -11.35595   -8.86472   12.91010
      H1   -12.10568   -9.38808   13.22469
       H   -19.45888  -15.09991   18.14027
       O   -18.82952  -14.38428   17.85053
      H1   -19.30511  -13.53041   17.83417
       H   -15.58096  -12.12051   16.43334
       O   -15.95228  -11.33792   15.93731
      H1   -15.39062  -10.53414   16.13592
       H    -8.95024   -8.64824   19.80587
       O    -9.01068   -9.54135   19.54216
      H1    -8.04224   -9.61204   19.22803
       H   -18.69501   -1.26224   11.57460
       O   -19.34298   -1.84845   11.20798
      H1   -19.46098   -2.57489   11.88556
       H    -8.39425   -0.61667   18.50561
       O    -8.11729   -0.49078   19.44992
      H1    -7.55096   -1.24820   19.65450
       H   -11.41237   -3.25236   11.17037
       O   -11.88439   -3.78697   11.81180
      H1   -11.09042   -3.87500   12.43307
       H   -16.65490   -0.73900   13.52412
       O   -16.27063   -1.47806   14.02295
      H1   -15.99016   -1.02185   14.87048
       H    -9.38281   -1.84418   14.01111
       O    -9.26295   -1.40289   13.15142
      H1    -8.49618   -0.77353   13.24627
       H   -15.43297  -12.93922   13.15904
       O   -14.67897  -13.08560   13.81177
      H1   -13.89963  -13.15298   13.19320
       H   -10.11688  -11.74874   13.32505
       O    -9.22108  -11.78651   13.60769
      H1    -8.90300  -12.65295   13.39401
       H   -18.86261   -1.37170   17.37243
       O   -18.04152   -0.94455   17.51516
      H1   -17.42290   -1.35012   16.88214
       H   -17.37932  -11.45178   13.94633
       O   -17.42023  -10.93233   13.11383
      H1   -17.02044  -10.08448   13.38013
       H   -14.03258  -11.62433   19.05761
       O   -14.34101  -12.49812   18.69058
      H1   -15.32870  -12.27318   18.77361
       H   -14.93946   -4.65633   10.86987
       O   -14.65005   -5.42380   10.36799
      H1   -13.94511   -5.76762   10.82978
       H   -10.81853   -9.38454   18.63972
       O   -11.54864   -9.10342   18.03850
      H1   -12.20453   -8.76323   18.65953
       H   -12.92568   -0.51767   12.48908
       O   -13.77790   -0.60203   11.99392
      H1   -14.07840   -1.50201   12.16081
       H   -16.33767   -6.44718   15.35283
       O   -15.84405   -6.81689   14.59630
      H1   -16.54212   -6.89682   13.86396
       H    -9.20843   -5.25369   12.94560
       O    -9.87833   -5.70223   13.44033
      H1   -10.38145   -6.10781   12.72626
       H   -10.61419   -4.13010   19.10867
       O    -9.99668   -4.89562   19.20690
      H1   -10.12479   -5.48962   18.43083
       H   -14.03194    1.32671   14.87197
       O   -13.69737    1.69849   15.69563
      H1   -12.76843    1.44346   15.62610
       H   -15.63171   -7.08272   10.18249
       O   -16.09112   -7.82309   10.56824
      H1   -16.44978   -8.32025    9.82154

