180
frame 2 | Written by MDAnalysis XYZWriter (release 2.4.3)
       H    15.06220    4.96091    3.68724
       O    14.61563    5.49817    4.35715
      H1    13.96369    4.90500    4.73552
       H    11.73850    2.31592    9.27737
       O    12.23280    3.05299    8.81922
      H1    13.10294    3.07048    9.28371
       H    16.94532   12.89255    5.06842
       O    17.14651   13.68665    4.55603
      H1    17.49059   14.32478    5.21991
       H    14.22059   11.22037    5.69331
       O    14.93480   11.77291    5.91583
      H1    14.71459   12.63279    5.44514
       H    16.25897    3.06392   10.34654
       O    16.39068    2.47650   11.09634
      H1    16.84096    1.73452   10.61784
       H    18.37212   11.41415    2.69878
       O    17.44036   11.10918    2.61852
      H1    17.42196   10.17562    3.05796
       H    16.60139    9.84861    7.34894
       O    16.41002    9.24024    6.61536
      H1    16.40968    8.39762    7.04326
       H    13.31952    6.64458   11.77573
       O    13.98027    6.19257   11.27462
      H1    14.75530    6.29309   11.83113
       H    10.06797    9.13756    7.63561
       O    10.59448    8.50668    8.20555
      H1    10.15095    8.53588    9.07682
       H    13.88017    0.75695    7.85534
       O    14.75584    1.12345    7.80996
      H1    15.23658    0.63197    8.49620
       H    16.26332   10.62432    0.05778
       O    17.21141   10.47361    0.07482
      H1    17.40463   10.79196    0.98075
       H    16.92884   13.70103    1.46873
       O    17.63043   14.17321    1.94408
      H1    17.50717   13.92305    2.86890
       H    16.97583    8.85575   -0.63323
       O    16.57754    7.94020   -0.81306
      H1    16.74545    7.55061    0.07283
       H    17.16759    7.25701    2.75964
       O    17.46251    7.00064    1.83381
      H1    17.20440    6.04841    1.92357
       H    14.87691    2.91239    8.32612
       O    15.10567    3.80778    8.64139
      H1    14.77022    4.41138    8.01916
       H    17.17572    6.32725   13.42363
       O    16.62792    6.31850   14.20371
      H1    16.65345    5.41467   14.50766
       H    17.85446   11.72679   11.68247
       O    17.93064   11.56574   12.66457
      H1    17.63252   10.63417   12.62113
       H    14.25727    9.78428   14.96749
       O    14.81328    9.62394   14.11424
      H1    15.18734    8.80326   14.35452
       H    13.82525   12.88247   11.72391
       O    14.01051   12.80622   10.79677
      H1    14.98557   12.69192   10.83816
       H    19.28506   14.22114    6.39937
       O    18.79450   15.05353    6.60201
      H1    19.23922   15.80187    6.26422
       H    13.98636   12.42447    1.99763
       O    14.89753   12.34067    1.63869
      H1    15.38459   11.87665    2.37257
       H    13.29697   10.11221   11.33111
       O    12.53794    9.74448   10.86167
      H1    12.84942    9.56339    9.92940
       H     9.95828    3.91024   11.11556
       O    10.86525    4.28639   11.31224
      H1    11.38987    4.14530   10.50576
       H    18.77839    7.11376    5.00662
       O    19.50395    6.53241    5.30660
      H1    19.03132    5.68419    5.18145
       H    12.24281    7.18990    9.23223
       O    12.98158    6.70320    8.79284
      H1    13.33666    6.15556    9.56427
       H    13.11191    8.63692   13.65453
       O    12.56920    7.95560   13.23832
      H1    12.51800    8.39047   12.36626
       H    15.92391    4.10793    1.51685
       O    16.35328    4.55196    2.29406
      H1    17.04158    3.92751    2.43575
       H    11.33823    8.59444    1.73388
       O    12.15383    9.08685    1.48123
      H1    12.21260    9.12674    0.48934
       H    11.97497    4.85492    5.36772
       O    12.18420    4.31083    4.63200
      H1    12.53058    3.48957    5.01526
       H     9.39857    5.72019    7.95503
       O    10.03209    4.99843    7.79326
      H1    10.73794    5.29485    8.32077
       H    17.09315    2.57561    7.37969
       O    17.14803    2.12002    6.49816
      H1    17.46387    1.25060    6.74917
       H    10.08019   12.79091    4.62085
       O    10.36953   11.89414    4.74560
      H1    11.05043   11.77709    4.09751
       H    14.13244    6.63737    2.20096
       O    13.62694    6.73069    1.40658
      H1    13.41881    7.70413    1.49920
       H    13.13963    8.47016    5.73779
       O    13.65586    9.24104    5.84501
      H1    14.54775    8.88842    5.90948
       H    14.09961   14.67768   10.53173
       O    14.41445   15.55890   10.76746
      H1    15.38490   15.40187   10.71525
       H    17.20375    4.39647    5.57052
       O    18.00946    4.21487    5.02388
      H1    18.23906    3.32945    5.36087
       H    10.81365    6.44533    2.37514
       O    10.68217    7.28613    2.72860
      H1     9.73552    7.26238    2.94643
       H    14.97510    7.08584   -1.26035
       O    14.16351    6.59111   -1.12919
      H1    14.27267    6.52656   -0.13712
       H    17.28211   13.53979   10.43612
       O    16.98249   12.61021   10.37866
      H1    17.09265   12.40456    9.44146
       H    11.82419   11.84335    2.46918
       O    12.55549   11.51496    2.98850
      H1    12.64584   10.61885    2.66847
       H    11.60584    4.18039    2.54515
       O    11.68369    4.51257    1.63969
      H1    12.31538    5.24743    1.61543
       H    14.69913    6.36851    6.21460
       O    15.14534    6.48252    7.09101
      H1    14.43081    6.80570    7.60487
       H    11.78394    6.78588    6.54371
       O    12.20086    6.81691    5.65593
      H1    11.47392    6.98324    5.00065
       H    14.08268   16.70488    5.59149
       O    14.71726   15.97420    5.79926
      H1    14.30197   15.35765    5.17294
       H    10.35368    5.97325   10.87156
       O    10.48501    6.92332   10.81332
      H1     9.66682    7.31318   10.43045
       H    14.55182   15.04243    7.27951
       O    14.60772   14.30647    7.90019
      H1    14.42283   14.74602    8.72485
       H    14.14793   11.19825    7.94950
       O    13.45480   10.53353    8.25340
      H1    13.40923    9.90068    7.49217
       H    12.48099   12.06970    7.78342
       O    12.43224   12.85138    7.20078
      H1    13.14250   13.38182    7.57982
       H    18.86423    5.94217   10.87542
       O    18.07240    5.68083   11.40975
      H1    18.30458    4.69641   11.57340
       H    12.92943   13.31951    5.18985
       O    13.37068   13.99451    4.65597
      H1    12.72907   14.31835    3.98491
       H    16.40115   12.24663    6.93631
       O    17.10494   12.54257    7.58179
      H1    16.79970   13.45496    7.86503
       H    18.55206    7.76539    7.99940
       O    19.27931    8.27975    7.59099
      H1    19.38705    7.77899    6.75534
       H    18.14612    4.90073    8.44964
       O    18.27445    3.90510    8.44837
      H1    19.03073    3.79898    9.04977
       H     9.83942   10.94960    6.54532
       O     9.19268   10.36100    6.90125
      H1     8.71592   10.93507    7.55234
       H    17.93129   16.98993    8.67502
       O    17.15256   16.45645    8.40773
      H1    17.48454   15.94481    7.64264
       H    17.45169    6.11404    9.69667
       O    17.39176    6.45071    8.83115
      H1    16.46932    6.18745    8.54723
       H    11.08650   12.94255   10.50143
       O    10.88089   12.04409   10.16780
      H1    11.66932   11.57065   10.33189
       H    15.13510    1.69056    4.26507
       O    15.96185    1.76410    3.79628
      H1    16.57559    1.93469    4.47451
       H    17.17493    9.16584    5.06538
       O    17.53165    8.75543    4.21611
      H1    18.47355    9.05413    4.21956
       H    18.51297    8.16083   11.98748
       O    17.63140    8.37946   12.25575
      H1    16.99661    7.98990   11.70328

