180
frame 3 | Written by MDAnalysis XYZWriter (release 2.4.3)
       H     7.03476    4.82419  -19.22354
       O     6.15427    5.18511  -19.03640
      H1     5.83339    4.65579  -18.29429
       H     4.14719    6.46354  -12.75615
       O     4.41334    7.41053  -12.79531
      H1     3.63645    7.77029  -12.33788
       H     1.25884    4.52145   -9.36239
       O     0.50404    4.92860   -8.80594
      H1    -0.04993    5.28723   -9.56537
       H    -1.49372    0.41301  -13.79100
       O    -1.40983   -0.22346  -13.02694
      H1    -2.20904   -0.07422  -12.48380
       H    -2.24748   -3.30821  -13.22998
       O    -2.36070   -2.70965  -14.01316
      H1    -2.02549   -1.85333  -13.73635
       H    -3.56126    2.03312  -18.08134
       O    -3.15710    1.48385  -17.45642
      H1    -2.40281    1.25371  -17.96174
       H     2.51924    1.68997   -9.17259
       O     1.98078    2.30707   -9.63249
      H1     1.83995    1.85719  -10.44948
       H    -3.78111    5.91177  -18.25626
       O    -3.07803    5.82190  -18.92454
      H1    -2.54102    5.21324  -18.38758
       H    -3.55492    3.62712  -12.99016
       O    -4.07680    3.97816  -13.68093
      H1    -4.84495    3.35330  -13.79908
       H    -5.30601    1.61449  -14.96210
       O    -6.23080    1.82312  -14.78251
      H1    -6.64369    1.93224  -15.64707
       H     4.46059    3.23263  -10.11003
       O     5.25418    3.10058  -10.58506
      H1     5.62704    4.00496  -10.64136
       H     3.82007    2.16553  -13.36594
       O     4.30111    1.45602  -12.90596
      H1     4.71588    1.88939  -12.12412
       H     0.67549    4.61346  -13.25122
       O     0.61248    4.84492  -12.27362
      H1     0.73463    3.98687  -11.85628
       H    -2.86921    7.69102  -15.07066
       O    -3.76589    8.16695  -14.86701
      H1    -4.35636    7.44429  -14.74301
       H     3.76907   -2.74368   -9.61745
       O     3.03744   -3.19048   -9.17560
      H1     2.96315   -2.72160   -8.31122
       H     6.31898    2.45098  -14.61874
       O     6.57601    1.58881  -14.34883
      H1     5.86404    1.44494  -13.68366
       H     2.04160    8.69413   -9.13031
       O     1.21712    8.69751   -9.61345
      H1     1.40137    7.98122  -10.24214
       H     7.84409    0.46559  -14.58647
       O     8.47837   -0.19800  -14.93903
      H1     9.33840    0.29930  -14.82581
       H     0.27896   -2.16963  -12.70548
       O    -0.02308   -2.46888  -11.83118
      H1     0.53678   -3.14808  -11.47407
       H    -1.73523    3.86245  -10.71488
       O    -2.11162    3.08948  -11.20226
      H1    -2.76252    2.80600  -10.49846
       H     1.29495    2.21613  -13.30648
       O     1.90036    2.59063  -13.97059
      H1     1.31598    2.93178  -14.67086
       H    -0.19803    0.87964  -12.18790
       O     0.11926    1.79731  -12.08755
      H1    -0.80337    2.11436  -11.78492
       H     2.00474   -0.55064  -10.02229
       O     1.62527   -0.33930  -10.91517
      H1     1.04117   -1.02137  -11.17834
       H     0.64198    3.99331  -19.58396
       O    -0.21303    4.29553  -19.22671
      H1    -0.30311    3.69074  -18.45147
       H     4.24498    1.57670  -18.67549
       O     3.83115    2.32187  -18.17784
      H1     3.67716    1.88981  -17.30441
       H     2.53148    0.44502  -16.14500
       O     3.49065    0.36227  -15.77474
      H1     3.45475    0.47405  -14.77508
       H    -1.20037   -2.89468  -17.15670
       O    -1.35701   -3.57356  -16.54531
      H1    -1.61739   -3.03164  -15.76332
       H     3.28416   -0.87862  -11.56909
       O     3.96284   -1.57646  -11.62687
      H1     4.34645   -1.39991  -12.49895
       H     4.52602    7.22226  -16.60638
       O     3.78845    6.60636  -16.53018
      H1     3.26649    6.94154  -15.79279
       H    -0.98942   -0.80326  -18.64397
       O    -0.96286   -0.40740  -17.80685
      H1    -1.87287   -0.62415  -17.50971
       H    -3.19989    1.06038  -15.56789
       O    -3.52701    1.25076  -14.68231
      H1    -3.61074    2.23551  -14.70074
       H     4.44410    5.90220  -19.54388
       O     3.53400    6.20873  -19.70500
      H1     3.79934    7.18785  -19.63692
       H     6.66646    6.84463  -15.54279
       O     6.26465    7.63409  -16.00137
      H1     6.87932    7.65252  -16.77494
       H     8.00897    5.19517  -15.42443
       O     7.50406    5.61271  -14.73880
      H1     8.15923    6.03068  -14.16839
       H     6.44313   -1.01655   -9.42767
       O     5.98645   -0.22855   -9.76795
      H1     5.27602   -0.59316  -10.31535
       H     1.28195    8.32347  -15.48130
       O     2.12270    8.06267  -15.05797
      H1     2.64154    8.78886  -15.24758
       H     1.32821    4.88735  -18.11254
       O     1.60997    5.01263  -17.21987
      H1     2.37235    5.59359  -17.37115
       H    -1.45115   -2.25472   -7.85083
       O    -0.97204   -2.04603   -8.64827
      H1    -0.60759   -1.15574   -8.57691
       H     5.49714    4.80605  -15.69585
       O     5.41792    4.08353  -16.29687
      H1     4.66402    4.28167  -16.80895
       H    -0.26828    1.71308   -8.06988
       O    -0.41525    0.85121   -8.51826
      H1     0.17307    0.83406   -9.28312
       H    -3.97510   -0.53260  -11.99784
       O    -3.56364    0.09506  -11.42089
      H1    -4.19826    0.84263  -11.65217
       H     6.03973    8.22529  -12.19922
       O     6.84671    8.69827  -12.31219
      H1     6.69489    9.36698  -12.99450
       H    -0.20282    3.52766   -7.86632
       O    -0.80552    3.25397   -7.14195
      H1    -0.42897    3.78020   -6.41155
       H     3.85945   -3.32119  -13.41331
       O     4.53582   -3.32384  -14.05951
      H1     4.03913   -3.13351  -14.84992
       H    -1.48337    7.83102  -16.45286
       O    -1.13105    7.61298  -15.52630
      H1    -0.73352    8.42633  -15.17853
       H     6.91701    2.50367  -17.01758
       O     7.63459    1.85573  -16.89109
      H1     7.29168    1.30308  -16.15778
       H     8.33703    1.82552   -9.97947
       O     8.29533    1.21185  -10.73129
      H1     7.52789    0.66560  -10.39924
       H     5.28827    6.75817  -10.99820
       O     5.87094    5.99828  -10.85508
      H1     6.66194    6.35339  -10.38318
       H    -2.09434    6.70407  -10.86660
       O    -1.76479    5.97239  -10.28346
      H1    -1.84442    6.35311   -9.35463
       H     1.41235    6.43113  -11.95120
       O     1.66102    7.33546  -11.83185
      H1     0.94347    7.78327  -12.34588
       H     4.35612    0.44661   -9.12470
       O     3.48563    0.19294   -8.72133
      H1     3.74683   -0.41082   -7.99454
       H     0.82635    5.01567  -15.71573
       O     0.10630    4.99266  -15.04237
      H1    -0.15314    5.91403  -14.96847
       H    -2.12759    1.11381   -8.81039
       O    -3.05393    1.37927   -8.95711
      H1    -3.19816    0.77085   -9.74774
       H    -0.95329    3.68446  -16.36809
       O    -0.84187    2.86517  -16.88702
      H1    -1.80101    2.56391  -17.00778
       H     6.77427    2.94665   -8.00667
       O     7.30738    3.23962   -8.79716
      H1     6.48747    3.16574   -9.36618
       H     3.90261   -1.27691  -16.29135
       O     3.89032   -2.26886  -16.38747
      H1     4.40292   -2.27369  -17.25287
       H    -0.00568    1.17096  -15.94126
       O     0.49738    0.36424  -15.85672
      H1     0.16119   -0.24140  -16.53374
       H    -3.54677    4.71987  -15.38640
       O    -2.87121    5.03963  -16.00784
      H1    -2.02083    5.11296  -15.52717
       H     1.67705   -2.33256  -14.75260
       O     1.57311   -1.65318  -14.07547
      H1     1.21590   -0.88393  -14.64423
       H     2.89754    5.08792   -6.44225
       O     3.13497    4.57191   -7.21409
      H1     2.27201    4.55521   -7.65177

