180
frame 11 | Written by MDAnalysis XYZWriter (release 2.4.3)
       H     7.38167  -15.65277    4.22251
       O     7.96410  -14.96604    4.42684
      H1     8.77214  -15.20889    4.03652
       H     4.41530  -11.22811   11.27566
       O     4.07505  -12.09327   11.40015
      H1     4.06804  -12.49131   10.50540
       H     5.44807  -16.73729    5.55832
       O     5.65017  -16.71237    6.55933
      H1     6.61465  -16.97732    6.60045
       H     5.45782  -13.07999    2.48272
       O     5.76731  -12.35286    1.87162
      H1     5.27630  -11.54959    2.08886
       H     8.65626   -9.25231    8.59621
       O     9.10751   -8.50943    8.26258
      H1     8.82049   -7.77748    8.84045
       H     9.43023  -16.85666    6.09739
       O     8.80365  -16.56405    6.72413
      H1     8.33979  -15.82921    6.29114
       H     0.92807  -13.19883    8.32557
       O     1.85567  -13.00889    8.18731
      H1     1.95034  -12.69216    7.28797
       H    12.35698  -13.21919    2.80964
       O    11.66252  -13.52399    3.40145
      H1    10.91382  -13.01912    3.04150
       H     3.46165  -13.08458    8.59963
       O     4.36297  -13.04549    8.97868
      H1     4.83767  -12.38492    8.45545
       H     8.48549  -10.26222    4.00732
       O     8.07879  -10.48473    3.18319
      H1     7.57017  -11.25629    3.57516
       H     7.95790  -10.28095   10.55433
       O     7.82488  -10.41686    9.59493
      H1     7.98288  -11.39595    9.61862
       H    10.59976   -9.34729    8.52160
       O    11.40378   -9.78955    8.16923
      H1    11.84863  -10.09528    8.98518
       H     5.61641   -9.88292    6.56091
       O     5.58076   -9.75420    5.62315
      H1     5.32466  -10.65897    5.45814
       H    10.25826  -16.62584   -0.20416
       O     9.92887  -16.87852    0.66324
      H1     9.22675  -16.19260    0.82931
       H     3.22571   -7.86447    8.61949
       O     3.97743   -7.78080    9.25242
      H1     4.74681   -7.89029    8.61996
       H     5.67038  -14.56207   14.19311
       O     6.35687  -14.52516   13.49590
      H1     6.69692  -15.42986   13.60363
       H     8.20460   -9.46611    1.76470
       O     8.54064   -9.22695    0.88358
      H1     7.81545   -9.61842    0.33298
       H    11.34479  -14.89070   11.64117
       O    12.14342  -15.06655   12.15111
      H1    12.85163  -14.69686   11.59588
       H    12.77053   -9.18866    6.53247
       O    13.65087   -9.32825    6.23033
      H1    13.49616   -9.25819    5.25657
       H     7.76472  -14.80777    1.03240
       O     7.46542  -15.67351    1.25564
      H1     6.90033  -16.00200    0.50346
       H     3.95173  -17.23946    7.78836
       O     3.15951  -17.15908    8.33375
      H1     3.01959  -18.15137    8.42147
       H     2.70204  -17.54919    4.37587
       O     1.93362  -17.03042    4.18327
      H1     1.93576  -16.39236    4.94208
       H     9.57008   -9.34215    5.42472
       O     9.71811  -10.25710    5.19215
      H1    10.59915  -10.30394    4.80839
       H     8.41943  -10.55816   13.01771
       O     8.07406   -9.72795   12.52687
      H1     7.12431  -10.00400   12.45129
       H     9.96954  -12.74135   13.99379
       O    10.90713  -12.99439   14.04969
      H1    11.13445  -13.28780   13.18105
       H     9.68953  -10.88733    2.48578
       O    10.56619  -11.17380    2.23005
      H1    10.31979  -11.33391    1.28155
       H     7.75233  -13.54832    7.01051
       O     8.15362  -13.03198    6.33570
      H1     7.91250  -13.50460    5.52791
       H     1.20840  -14.22940    2.55621
       O     1.97867  -14.50779    3.11361
      H1     1.80387  -15.40686    3.41463
       H     1.56748  -12.93395    4.57725
       O     1.11199  -12.83889    5.39604
      H1     0.58942  -12.04544    5.16727
       H     6.21983  -12.70918    6.07967
       O     5.45306  -12.40157    5.62541
      H1     5.25553  -13.12335    4.99491
       H    13.53953  -14.36615    9.37904
       O    13.66805  -13.95734   10.23982
      H1    13.33824  -13.04068   10.19392
       H    14.45990  -13.09475    5.16774
       O    15.06867  -13.59348    4.53038
      H1    14.49759  -13.51466    3.74282
       H     6.63103  -19.55421    9.58942
       O     6.74210  -19.02306   10.37372
      H1     5.82822  -18.69759   10.59965
       H    11.87467   -7.55582    4.59436
       O    11.78196   -8.43700    4.18371
      H1    12.16806   -8.30445    3.30069
       H    10.20798  -12.80522    6.88174
       O    10.86987  -12.43733    7.45166
      H1    10.69851  -11.48231    7.48816
       H     6.63452  -15.38760   10.43071
       O     6.19076  -16.21197   10.82985
      H1     6.19080  -16.11827   11.81284
       H     9.26934  -15.44110   10.20858
       O     9.68959  -15.16356   11.08168
      H1     9.43587  -15.93269   11.64496
       H    14.19310  -15.85746    5.33504
       O    13.34626  -16.06501    5.73545
      H1    13.27518  -15.35956    6.32711
       H     4.39440  -15.88445   10.99603
       O     3.44375  -15.95024   10.85790
      H1     3.35295  -16.36099    9.96609
       H     5.34833  -14.95212    3.35562
       O     4.86561  -14.12981    3.53106
      H1     3.91003  -14.30254    3.31307
       H     8.46405  -12.31243   14.75007
       O     8.36108  -12.30118   13.73277
      H1     7.62070  -12.96122   13.63936
       H    11.27083   -9.41923   12.06495
       O    10.65091   -9.38729   11.33413
      H1     9.78819   -9.64912   11.62525
       H    11.51915  -17.37620    5.58384
       O    11.50826  -18.25208    5.93576
      H1    11.35133  -18.14805    6.88584
       H    11.24043  -19.25863    9.00365
       O    10.45820  -18.94394    8.47960
      H1    10.07605  -18.16899    8.94217
       H    10.89291  -16.74448    3.35833
       O    10.63678  -16.12892    4.08124
      H1    10.97771  -15.25367    3.80741
       H     6.25081  -16.54676    2.28024
       O     5.80741  -16.57572    3.18897
      H1     5.04133  -17.08512    2.94261
       H     2.21459  -16.05836    7.15525
       O     1.87091  -15.53558    6.40035
      H1     1.97542  -14.66117    6.80971
       H    11.14155   -6.18629    6.50340
       O    11.73346   -6.98049    6.65687
      H1    10.95421   -7.47854    6.92478
       H     4.72900   -7.88620    4.93306
       O     3.85982   -7.44734    4.76346
      H1     3.88982   -6.74256    5.42367
       H     9.62603  -13.45612    9.96700
       O     9.10408  -12.91412    9.36194
      H1     9.73234  -12.83464    8.62742
       H    13.72781  -11.16867    6.59741
       O    13.62126  -12.13609    6.44251
      H1    12.67880  -12.28227    6.66645
       H    13.04790  -10.55453   10.60027
       O    12.66570  -11.45988   10.77583
      H1    11.72400  -11.29119   10.83510
       H     7.52769  -12.70562    1.12856
       O     8.40308  -13.04608    0.85141
      H1     8.36443  -13.44720   -0.01423
       H     3.34437   -9.90775    2.95841
       O     3.01514  -10.79468    2.88146
      H1     2.94231  -10.91166    1.91333
       H     7.59055  -16.95387    9.59852
       O     8.56267  -16.94730    9.45580
      H1     8.67149  -16.75776    8.51586
       H     6.93948   -8.70685    5.59007
       O     7.60699   -7.96861    5.56291
      H1     8.02514   -8.00126    6.42519
       H     6.05895  -15.40613    7.52778
       O     6.44694  -14.61837    8.00282
      H1     5.68572  -14.11446    8.31832
       H     8.47364   -6.94061    2.88654
       O     9.33379   -6.89571    3.34575
      H1     9.63226   -7.80054    3.29273
       H     4.93816   -9.73335    9.12602
       O     5.52201  -10.04044    8.39489
      H1     6.42201  -10.24571    8.81216
       H    11.96671  -16.61057   11.15739
       O    12.23149  -17.44978   10.66704
      H1    11.62406  -18.12026   10.98651

