180
frame 5 | Written by MDAnalysis XYZWriter (release 2.4.3)
       H   -16.13723   -6.98661   -2.95326
       O   -16.26958   -6.40641   -3.74815
      H1   -16.18124   -7.00519   -4.52440
       H   -14.12558   -2.91205   -3.90373
       O   -13.83534   -2.38726   -3.14568
      H1   -14.63436   -2.18203   -2.60738
       H   -17.45972   -1.26948    5.86828
       O   -16.62464   -1.08962    6.31259
      H1   -16.90907   -1.05855    7.23732
       H   -16.68966   -5.84641    0.59417
       O   -16.12184   -5.57283    1.35057
      H1   -15.71070   -6.35996    1.63154
       H   -11.99364   -3.19891   -4.12828
       O   -12.09475   -3.59265   -4.99623
      H1   -11.96260   -4.51577   -4.83427
       H   -11.12713   -2.42675    0.10213
       O   -10.84457   -1.57433   -0.26297
      H1   -10.02145   -1.33521    0.16462
       H   -12.46253    2.01296   -2.57353
       O   -12.30737    1.14349   -2.18060
      H1   -11.86073    0.61508   -2.87229
       H   -13.80606    2.41663    1.99184
       O   -14.41270    2.13162    2.69882
      H1   -14.26570    2.85905    3.36191
       H   -14.64571    4.22417   -0.66083
       O   -14.44939    3.69122    0.12463
      H1   -15.25233    3.75497    0.70634
       H   -13.90352    0.86907   -1.74008
       O   -14.86402    0.99657   -1.64121
      H1   -14.85919    1.48481   -0.83006
       H   -12.51530    2.57981    5.12004
       O   -12.65613    2.10838    5.95775
      H1   -12.79121    1.18731    5.60652
       H   -16.61513   -2.91487   -0.50623
       O   -17.14760   -2.78825   -1.35551
      H1   -18.09014   -2.69927   -1.03827
       H   -12.78586   -3.26090    0.73740
       O   -11.96784   -3.79778    0.78280
      H1   -11.94842   -4.08716    1.69956
       H   -13.30268   -6.79026    4.40274
       O   -13.78668   -5.94660    4.21452
      H1   -14.50641   -6.04803    4.87046
       H   -17.12197   -4.07433    3.94786
       O   -17.76197   -4.62968    4.47124
      H1   -18.48617   -3.98464    4.24031
       H   -11.19859    0.18371    8.21336
       O   -10.90013    1.03725    7.87960
      H1   -11.49779    1.26519    7.08796
       H   -14.45699   -0.79308   -5.23055
       O   -14.34843   -0.45527   -6.13708
      H1   -13.46260   -0.84012   -6.33700
       H   -11.72352   -2.04917    3.61150
       O   -10.96657   -2.46634    4.01572
      H1   -11.14521   -3.40631    3.79174
       H   -17.91186   -3.00030   -5.74923
       O   -18.76639   -3.00472   -5.25128
      H1   -18.62983   -3.73492   -4.57211
       H   -12.23648    1.42961    0.53681
       O   -12.40920    0.55585    0.93515
      H1   -11.83821   -0.04831    0.42856
       H   -10.84492    6.11821    3.11928
       O   -10.17477    5.46583    3.16784
      H1   -10.51855    4.85905    2.49044
       H    -9.15634   -0.92409    3.64648
       O    -8.71600   -0.73655    2.81868
      H1    -8.69518   -1.62331    2.44969
       H   -18.05858    1.07736    0.34421
       O   -17.34827    1.10523    1.02256
      H1   -17.02827    0.18791    1.01713
       H    -7.78222   -3.81564    1.30449
       O    -8.15526   -2.87218    1.15958
      H1    -7.71664   -2.71176    0.29418
       H    -9.71403   -1.53949   -4.38513
       O    -8.96928   -1.27751   -4.94883
      H1    -8.40912   -0.73864   -4.37392
       H   -15.59393   -4.23874    0.64924
       O   -15.10202   -3.54856    0.25952
      H1   -15.29135   -2.72506    0.81349
       H   -12.93136   -1.05498    4.95190
       O   -12.60521   -0.75592    5.84274
      H1   -11.90702   -1.40369    5.85765
       H   -15.00408   -0.62671    0.80626
       O   -15.71846   -1.13059    1.14688
      H1   -15.59401   -0.81617    2.09301
       H   -16.84103    3.80772    2.18433
       O   -16.87319    3.85469    1.21413
      H1   -17.27005    2.92885    1.07835
       H   -15.18413    2.91910    6.16591
       O   -15.84593    2.22932    6.15318
      H1   -16.51375    2.62668    6.71110
       H   -12.38674    4.43754   -3.93453
       O   -12.02120    3.99069   -3.15914
      H1   -11.07501    4.15544   -3.27642
       H   -15.58443    2.87397   -6.17854
       O   -16.30584    3.41725   -5.83817
      H1   -16.54844    3.10583   -4.94170
       H   -10.49989   -5.49700   -2.42186
       O    -9.63024   -5.86875   -2.60604
      H1    -9.17978   -5.68408   -1.73789
       H   -10.31998    0.83536    3.07047
       O   -10.70878    1.63746    3.47635
      H1   -10.03664    1.84058    4.17684
       H   -18.10044   -5.98783    3.31089
       O   -18.70014   -6.34760    2.57956
      H1   -17.97732   -6.78294    2.12114
       H   -17.11338   -0.95481   -1.85340
       O   -17.12174   -0.10617   -2.39176
      H1   -16.12152    0.15947   -2.20827
       H   -14.75426    5.35634    1.42451
       O   -14.43926    5.91814    2.14012
      H1   -13.65982    6.41709    1.69169
       H   -19.15430    0.04289    4.19522
       O   -19.19427    0.02949    3.20651
      H1   -18.26373    0.06389    2.99294
       H   -10.28468    3.27272    1.07726
       O   -11.11454    3.39533    1.51686
      H1   -11.08476    2.79314    2.32428
       H   -10.89451   -8.17242    1.30793
       O   -11.23557   -7.28306    1.29747
      H1   -11.67582   -7.16178    0.44255
       H   -13.19088   -4.09882    6.54404
       O   -12.51339   -4.71033    6.74814
      H1   -12.68479   -5.36645    6.06413
       H   -15.33530    4.13982    4.09473
       O   -14.48717    4.03285    4.54445
      H1   -13.87111    4.66142    4.09475
       H   -14.17783   -1.55793    3.38728
       O   -13.21014   -1.38449    3.18859
      H1   -13.16975   -0.68832    2.49710
       H   -17.78658   -7.04270   -1.49862
       O   -17.05740   -6.82632   -0.91205
      H1   -16.88828   -7.72541   -0.53462
       H   -11.34889   -6.10479    2.63852
       O   -11.29763   -5.29824    3.21818
      H1   -12.17710   -5.35929    3.62208
       H   -17.61226    2.32847   -2.64844
       O   -17.01183    2.87750   -3.11801
      H1   -17.53672    3.64645   -3.30737
       H   -15.72815   -4.73480   -4.62664
       O   -14.82984   -4.58655   -4.98937
      H1   -14.35926   -5.30090   -4.56331
       H   -16.65279    6.84198   -1.00370
       O   -16.80483    6.81410   -0.06121
      H1   -17.57888    6.25944    0.05967
       H   -18.58761   -1.13627   -4.92641
       O   -18.34181   -0.18060   -4.83156
      H1   -17.75176   -0.28776   -4.03769
       H   -13.06763   -5.38247   -1.31528
       O   -12.13533   -5.40276   -1.27946
      H1   -11.97571   -4.81844   -0.47758
       H   -14.94390   -3.27398    4.52923
       O   -15.24205   -3.43735    3.62280
      H1   -14.67681   -4.18655    3.37877
       H   -15.01185   -2.28562    6.44026
       O   -14.23845   -2.77290    6.20559
      H1   -13.57229   -2.01717    6.25920
       H   -11.89382    4.83629    0.02807
       O   -12.01822    5.25280   -0.82635
      H1   -12.13735    4.52812   -1.41186
       H   -17.25777   -5.05957   -3.31267
       O   -18.05314   -4.53235   -3.09425
      H1   -17.67699   -3.73187   -2.61173
       H   -11.05622   -1.22410   -1.96492
       O   -11.42685   -1.40692   -2.86118
      H1   -12.28100   -1.78573   -2.58639
       H   -14.02676    4.94832   -2.51989
       O   -14.96595    4.77337   -2.25664
      H1   -15.09915    3.89580   -2.65261
       H   -18.43821    0.82990   -1.45793
       O   -19.10894    1.25905   -0.92584
      H1   -19.83036    0.61871   -0.92249
       H   -18.25141    4.57415    0.71027
       O   -18.94941    5.15973    0.35955
      H1   -19.50427    5.21697    1.14846
       H   -17.08221    3.12708    4.71029
       O   -17.23195    3.82722    4.02116
      H1   -17.91747    4.36197    4.37830
       H   -15.16704    0.70805    3.98566
       O   -15.61686   -0.22081    3.91112
      H1   -15.84931   -0.31466    4.82920

