180
frame 7 | Written by MDAnalysis XYZWriter (release 2.4.3)
       H   -14.42076  -18.32991   -5.47608
       O   -13.52517  -18.03922   -5.81686
      H1   -13.37158  -17.06409   -5.65597
       H    -7.58459  -14.29093   -1.97425
       O    -6.90707  -14.46424   -2.60334
      H1    -6.07891  -14.22766   -2.13061
       H   -11.46193   -6.28926   -2.30258
       O   -11.84272   -7.18055   -2.48557
      H1   -11.05126   -7.76948   -2.41203
       H    -5.11826  -15.97870   -7.31292
       O    -5.39880  -16.00162   -6.39816
      H1    -4.59569  -15.57940   -5.95139
       H    -8.02234   -7.12445   -5.42401
       O    -7.49055   -7.64078   -4.79495
      H1    -6.65354   -7.37132   -5.13781
       H   -14.15612  -14.42938   -8.34222
       O   -14.98463  -14.41001   -7.83946
      H1   -15.20348  -15.35132   -7.75244
       H   -12.05108   -9.83835  -10.24409
       O   -12.43882   -9.37999  -11.00762
      H1   -12.81825  -10.09111  -11.51896
       H    -9.40571  -13.65051   -0.65384
       O    -8.84826  -12.90421   -0.23971
      H1    -9.16796  -13.04184    0.70398
       H    -9.26941   -6.33196   -9.32918
       O    -9.59005   -5.40338   -9.21679
      H1   -10.40448   -5.51855   -9.70931
       H    -8.52227  -10.60808   -2.52811
       O    -7.96874  -11.35236   -2.83515
      H1    -8.26613  -12.04194   -2.21992
       H    -2.14508  -10.79966   -3.98876
       O    -2.48732  -11.31348   -4.70950
      H1    -3.36010  -10.90355   -4.92873
       H   -12.60880  -12.84529   -8.93385
       O   -12.70079  -13.80293   -9.20314
      H1   -11.90215  -14.21309   -8.85657
       H   -11.86554  -11.95652   -2.78908
       O   -11.84114  -12.69185   -3.43904
      H1   -12.53011  -13.27308   -3.17372
       H    -2.69861  -13.53185   -4.35447
       O    -3.38016  -14.15103   -4.70479
      H1    -3.83635  -13.45435   -5.31770
       H   -10.82415  -13.89765   -2.60415
       O   -10.19537  -14.63450   -2.40593
      H1   -10.72845  -15.22330   -1.85665
       H   -10.51232   -6.12210   -7.50649
       O   -11.20404   -6.44214   -6.85179
      H1   -10.88031   -7.30975   -6.64920
       H   -10.41512  -18.33840   -8.44021
       O    -9.55681  -17.94459   -8.62944
      H1    -9.80031  -16.98181   -8.48809
       H   -13.88585   -8.36775   -1.75327
       O   -14.13016   -9.27721   -1.56123
      H1   -13.33808   -9.78146   -1.30143
       H    -8.74569  -10.98426   -6.38265
       O    -9.72118  -10.98341   -6.63936
      H1   -10.07208  -11.77705   -6.25795
       H   -12.63512   -7.83792   -3.96128
       O   -12.95627   -8.38317   -4.72526
      H1   -13.85673   -8.06972   -4.89068
       H    -9.81010   -8.81364  -13.17164
       O    -9.38862   -9.36771  -12.54196
      H1    -9.91750  -10.17392  -12.55666
       H    -6.01172  -15.56815  -10.07413
       O    -6.64663  -15.97507   -9.50048
      H1    -6.89021  -15.18696   -9.06849
       H    -7.59370  -11.07682   -4.68038
       O    -7.27693  -10.56287   -5.44095
      H1    -7.40960   -9.63145   -5.18719
       H   -10.92513  -16.19829   -5.08494
       O   -11.53860  -15.73277   -5.63380
      H1   -11.20045  -14.82898   -5.46658
       H    -6.90687  -17.61931   -3.35715
       O    -6.13346  -17.02888   -3.18808
      H1    -6.63270  -16.18238   -2.91869
       H   -10.46545  -12.10549  -11.77622
       O   -10.96326  -11.57595  -12.45765
      H1   -11.22159  -10.76971  -12.02773
       H    -9.52356  -15.86446   -3.32785
       O    -9.38238  -16.63879   -3.94432
      H1    -8.80561  -16.23339   -4.59171
       H   -14.98241   -9.40411   -9.54646
       O   -15.63758   -9.08148   -8.94687
      H1   -15.08732   -8.75072   -8.23534
       H   -12.49348  -10.80004   -8.16247
       O   -12.13037  -11.26112   -8.93908
      H1   -11.23448  -10.98524   -9.00471
       H   -13.96091  -12.20964  -11.50009
       O   -13.83795  -11.56470  -12.29310
      H1   -14.58122  -10.95201  -12.11383
       H    -6.55244  -11.84640   -9.10672
       O    -7.37858  -11.51812   -8.69810
      H1    -6.89257  -10.83783   -8.12237
       H    -8.07536  -13.32997   -7.84566
       O    -8.07080  -14.28862   -7.92835
      H1    -8.08796  -14.61221   -7.03472
       H   -15.49368  -12.55814   -0.76460
       O   -15.37337  -12.29373   -1.68673
      H1   -16.22829  -12.61239   -2.05378
       H    -5.70160  -12.41995  -10.74279
       O    -5.12736  -11.78369  -10.31228
      H1    -4.54013  -11.59008  -11.08452
       H    -8.94703   -8.01220   -2.18486
       O    -9.48807   -8.76229   -2.48935
      H1    -9.44886   -8.71320   -3.45714
       H   -11.39683  -12.77438   -5.13186
       O   -11.16429  -13.15266   -6.01006
      H1   -11.98141  -13.18508   -6.51228
       H    -3.94130  -10.25471   -7.87040
       O    -4.85905   -9.88462   -7.84558
      H1    -5.05616  -10.03832   -8.77357
       H    -8.71414  -15.74600  -12.29453
       O    -8.36259  -15.17358  -11.57814
      H1    -8.05854  -15.83014  -10.94997
       H   -11.36827   -8.82933   -5.25260
       O   -10.36255   -8.73267   -5.28804
      H1   -10.03071   -9.53734   -5.72705
       H   -12.36861  -14.23920  -11.11600
       O   -12.65107  -14.52265  -11.97265
      H1   -12.35861  -15.48665  -12.00468
       H    -8.59686   -5.92391   -1.97421
       O    -7.99721   -6.66619   -1.92737
      H1    -7.57987   -6.55779   -1.06168
       H   -10.64425  -11.14429   -0.54883
       O   -11.15816  -10.80781   -1.31837
      H1   -10.60939  -10.08122   -1.60692
       H    -4.85853  -11.78268   -7.12510
       O    -4.48062  -12.57297   -6.75789
      H1    -4.47233  -13.11930   -7.56495
       H   -14.23585  -14.13295   -4.22992
       O   -13.87896  -14.64198   -3.47816
      H1   -14.57192  -14.59959   -2.83118
       H    -9.62765   -9.94476  -10.53403
       O    -9.72337  -10.17416   -9.52273
      H1    -9.12203  -10.94083   -9.33198
       H    -6.85634   -8.81801    0.24555
       O    -6.76565   -9.77914    0.38521
      H1    -6.79094  -10.04608   -0.59538
       H    -8.53302   -8.89570   -9.13892
       O    -8.29033   -7.95750   -8.83946
      H1    -7.56420   -7.85008   -9.44864
       H    -8.54408  -13.43511  -11.15948
       O    -8.60105  -12.51755  -11.48913
      H1    -7.78072  -12.48998  -11.98483
       H    -5.18946   -9.95514   -5.90758
       O    -4.62821   -9.65782   -5.15574
      H1    -4.13465   -8.90349   -5.50942
       H   -13.23551   -6.76593   -6.76748
       O   -14.08057   -6.60988   -7.24719
      H1   -14.56500   -7.30968   -6.80387
       H    -5.90319   -8.72676   -2.09900
       O    -5.03834   -9.06162   -2.37029
      H1    -5.07169   -9.14835   -3.37714
       H   -13.65724  -11.49915   -6.01780
       O   -13.27816  -10.72567   -6.44563
      H1   -13.21623  -10.14976   -5.61612
       H    -3.20909  -14.26578   -8.73334
       O    -4.18602  -14.18602   -8.92440
      H1    -4.06810  -13.54171   -9.65787
       H    -6.55773   -6.46005   -3.45632
       O    -5.63787   -6.10321   -3.35263
      H1    -5.36293   -5.99996   -4.27121
       H    -5.07291  -10.88073   -1.87014
       O    -5.48421  -11.54613   -1.31271
      H1    -5.23954  -11.33606   -0.43194
       H   -16.58086   -8.46321   -6.04578
       O   -15.78818   -8.80629   -5.71453
      H1   -15.85896   -9.77831   -5.96509
       H   -11.03133  -15.47481   -7.37597
       O   -10.70856  -15.36037   -8.28429
      H1    -9.87142  -14.86838   -8.13259
       H    -6.66929  -15.38945   -5.60976
       O    -7.52692  -15.09045   -5.25124
      H1    -7.20713  -14.70772   -4.36970
       H   -12.97651  -16.52200   -3.49088
       O   -12.85794  -17.22258   -2.84945
      H1   -12.64845  -17.82796   -3.59967
       H   -15.47976  -12.41155   -5.51263
       O   -14.64071  -12.89325   -5.62269
      H1   -14.68773  -13.38746   -6.47367

