180
frame 2 | Written by MDAnalysis XYZWriter (release 2.4.3)
       H     3.41789  -10.85136   16.92293
       O     3.65820   -9.96820   17.18678
      H1     3.38912   -9.98880   18.09333
       H     7.87317  -15.94323    4.92365
       O     8.24281  -15.34368    5.63384
      H1     9.09190  -15.02881    5.27373
       H     9.62433  -15.08234   15.83259
       O     9.11709  -15.17519   16.64150
      H1     9.47682  -14.42134   17.10445
       H     4.46831  -10.68565   11.60477
       O     3.59308  -10.26534   11.66394
      H1     3.05381  -10.96167   11.27756
       H     2.80430  -16.83846   15.66713
       O     2.40863  -17.71968   15.65005
      H1     2.44725  -17.91799   14.73742
       H     8.82942   -8.40200    8.75739
       O     9.24361   -7.68245    9.26397
      H1     9.09725   -8.13067   10.09334
       H     9.74708  -16.80847    7.64095
       O     8.80020  -17.07618    7.65574
      H1     8.35604  -16.40600    7.01650
       H     0.23828   -9.74635   10.00506
       O     0.53763   -9.21726   10.81098
      H1     0.76432   -9.94576   11.40927
       H     1.49984  -14.34417    6.84339
       O     0.76163  -14.00833    7.39121
      H1     0.20578  -13.69825    6.67207
       H     8.65869  -18.60848   13.63706
       O     8.29809  -18.24073   14.44837
      H1     7.37771  -18.62485   14.39842
       H     5.12318  -11.03018    7.51282
       O     4.54802  -11.46128    8.14323
      H1     3.82721  -10.83690    8.20065
       H     2.64477  -17.18898   12.60374
       O     2.64315  -18.03557   13.04684
      H1     1.79081  -18.35476   12.74759
       H     6.66436   -9.93625    7.14046
       O     6.21078  -10.42824    6.44937
      H1     6.90092  -11.13498    6.23506
       H    11.57663  -11.37314   10.89691
       O    11.05597  -11.25897   10.11258
      H1    10.29772  -10.75939   10.35638
       H     4.52568   -9.94610    5.27098
       O     3.71644   -9.62351    4.82545
      H1     3.67217  -10.14561    4.03363
       H     1.80943   -8.72491    7.28750
       O     1.05267   -8.42550    6.78398
      H1     1.47292   -8.27353    5.93471
       H     5.59046  -11.62628   12.47275
       O     6.23060  -11.59990   11.68059
      H1     5.97757  -12.48216   11.27624
       H     6.09855   -7.55467    8.74645
       O     5.41578   -7.94216    9.31547
      H1     5.34046   -7.31721   10.02122
       H     6.14772   -6.38723   16.64989
       O     6.89206   -6.41873   15.97912
      H1     7.03288   -7.38838   16.07262
       H    10.65498  -15.40719   11.21992
       O    11.25476  -15.59834   12.04187
      H1    12.13739  -15.45442   11.65179
       H    12.24305  -12.37750    9.07394
       O    12.84546  -13.10735    8.90438
      H1    13.64548  -12.64180    8.58390
       H     4.74561  -17.53192    7.82373
       O     4.05228  -17.61462    8.53122
      H1     4.63596  -17.75861    9.35932
       H     6.90650   -8.31884   11.69616
       O     6.83038   -7.90729   12.59964
      H1     5.82128   -7.79407   12.67031
       H    10.68331  -13.53119   14.36008
       O    11.18674  -14.20452   14.76555
      H1    11.31030  -14.78621   13.99630
       H     5.25712  -18.74357   13.52496
       O     5.55111  -18.91442   14.44278
      H1     5.71534  -18.09923   14.90765
       H     8.80859  -11.32859   15.15932
       O     8.85080  -12.27393   14.99987
      H1     8.20522  -12.56231   15.66239
       H     2.96336  -13.15576   18.04429
       O     2.55080  -13.01964   17.18300
      H1     1.59161  -12.94562   17.40565
       H     5.15047  -18.06571   17.61913
       O     5.64395  -17.56697   17.02147
      H1     5.09889  -16.78052   16.89891
       H     7.93668  -13.05170    7.15184
       O     8.23725  -12.40181    6.43785
      H1     8.06186  -12.85534    5.64038
       H     2.23532  -11.95571   13.43554
       O     2.56783  -12.10429   14.32581
      H1     2.19754  -12.94804   14.55298
       H     0.62663   -7.09701   12.32056
       O     1.48685   -6.96698   11.88646
      H1     1.52517   -7.62791   11.18034
       H     2.65432   -9.40795   15.85635
       O     2.08003   -8.92887   15.27242
      H1     2.71182   -8.58715   14.62821
       H     5.56480   -8.28153   15.20001
       O     5.76977   -9.06611   15.72738
      H1     5.05702   -9.07476   16.34693
       H     8.44092  -18.99232   10.98173
       O     8.14063  -18.27086   11.63889
      H1     7.21430  -18.16745   11.25615
       H     3.33515   -7.30600   13.26485
       O     4.00683   -7.96558   13.41835
      H1     3.74445   -8.64337   12.80779
       H     8.84462  -10.73384    7.44779
       O     8.66216   -9.77936    7.58045
      H1     9.24108   -9.45512    6.89165
       H     1.05903  -15.11406   15.57089
       O     1.57348  -14.71112   14.82423
      H1     0.81840  -14.70667   14.18923
       H     4.56038  -13.85994   11.27237
       O     3.87919  -13.23559   10.87342
      H1     3.89064  -13.39784    9.93935
       H     7.09185  -15.44236   11.24938
       O     6.24267  -15.01546   11.48858
      H1     6.15432  -15.24370   12.43619
       H    11.16600   -8.73362   13.04400
       O    11.19023   -9.64995   13.36474
      H1    10.54620   -9.52132   14.05739
       H     0.69961  -12.69338   11.49387
       O     0.66117  -11.76052   11.76890
      H1    -0.22822  -11.69400   12.10054
       H     8.82658  -12.19703   13.37020
       O     8.67178  -12.12992   12.39701
      H1     7.72226  -11.93905   12.33622
       H     7.01136   -5.31568    8.59366
       O     7.35128   -6.06685    8.06813
      H1     7.97167   -6.41251    8.71101
       H     6.89592   -5.73964   14.29363
       O     6.72771   -5.18650   13.50500
      H1     6.70535   -5.88354   12.80382
       H     6.51313  -12.28715   18.12511
       O     7.24090  -12.14396   17.50001
      H1     8.03997  -12.46259   18.04349
       H     3.15444  -16.46488    7.49460
       O     3.19768  -15.76810    6.83149
      H1     3.96795  -15.25890    7.08453
       H     9.98124   -9.53864   11.85829
       O     9.12348   -9.57188   11.40780
      H1     8.73418  -10.42557   11.68164
       H    -0.11547  -12.21525    9.50958
       O     0.32868  -11.53876    8.89822
      H1     0.82319  -12.15567    8.33877
       H     4.50336  -14.81084   16.02257
       O     3.88881  -15.41152   16.57125
      H1     3.12825  -14.83358   16.83269
       H     5.11333  -18.03897   11.48128
       O     5.60187  -17.64085   10.80002
      H1     5.53503  -16.67390   11.03828
       H     7.33851   -9.41442   14.98017
       O     8.23919   -9.21378   14.58701
      H1     8.05464   -8.71533   13.78205
       H     8.48262  -16.74776   11.05573
       O     8.69873  -16.01821   10.42399
      H1     8.62776  -16.52471    9.58864
       H     2.45565  -14.71340   13.29686
       O     2.91770  -15.13596   12.53978
      H1     3.04405  -14.37034   11.96484
       H     4.23770  -11.72926   14.47541
       O     5.20841  -11.50772   14.31917
      H1     5.30457  -10.62856   14.75728
       H     6.62939  -14.24428    9.21933
       O     6.22322  -14.03902    8.37840
      H1     5.80203  -13.17701    8.48063
       H     6.22403  -13.61673   16.05053
       O     5.93957  -13.97744   15.21111
      H1     5.85014  -13.08012   14.77385
       H    -1.61703  -14.81875   13.30493
       O    -0.71620  -14.47352   13.30271
      H1    -0.33615  -14.84464   12.48340
       H     4.38780   -5.24905   11.02845
       O     5.11643   -5.64447   11.49338
      H1     4.90690   -5.25384   12.35639
       H     6.77518  -15.42286   14.34739
       O     6.83182  -16.15836   13.75926
      H1     7.63190  -16.60159   14.19660
       H     2.16436   -8.52356    9.75298
       O     2.69409   -8.56654    8.94908
      H1     3.57153   -8.34061    9.21749

