180
frame 1 | Written by MDAnalysis XYZWriter (release 2.4.3)
       H    -9.41237    6.99876  -11.45404
       O    -8.77677    7.13831  -12.22395
      H1    -8.81164    8.06649  -12.54305
       H    -3.73235    1.81550  -18.06244
       O    -2.87288    1.90502  -17.60226
      H1    -2.47412    1.12991  -17.92287
       H    -6.55692    2.18083  -17.77719
       O    -7.24455    1.96856  -17.11002
      H1    -7.17386    1.00382  -17.18414
       H   -13.36570   12.02369  -18.37549
       O   -14.06528   11.70047  -18.96951
      H1   -13.87563   10.71548  -18.87913
       H   -12.50763    9.21737  -14.58664
       O   -13.37220    9.64186  -14.19255
      H1   -13.97883    8.96438  -14.58174
       H    -4.52760    5.15186  -18.58582
       O    -3.59091    5.02340  -18.93979
      H1    -3.14350    4.56485  -18.27372
       H    -2.59275    3.44743  -12.42915
       O    -3.33351    3.86900  -12.95683
      H1    -4.12378    3.56809  -12.50782
       H    -2.82509    8.90137  -12.19796
       O    -2.66578    9.84088  -12.14258
      H1    -3.01557   10.07588  -11.24622
       H    -4.90631    1.42085  -14.78435
       O    -5.85723    1.35651  -14.74381
      H1    -6.16472    1.50638  -15.63542
       H    -8.57906   13.27357  -14.16052
       O    -9.02489   12.44486  -14.23175
      H1    -9.94633   12.72122  -14.39011
       H    -6.34446    6.08447  -16.39616
       O    -6.77628    6.58625  -15.69977
      H1    -6.67643    5.95906  -14.92278
       H    -5.41739   -2.01032  -15.03338
       O    -5.24185   -1.30301  -15.67614
      H1    -5.25981   -0.51158  -15.15426
       H    -4.23071    7.95021  -14.64932
       O    -4.61299    8.79857  -14.89416
      H1    -5.56810    8.60432  -14.76896
       H    -4.33446   -1.02243  -17.79945
       O    -4.34797   -0.64886  -18.70925
      H1    -5.08297   -1.20544  -19.03627
       H   -11.53028    7.85341  -15.21152
       O   -11.23908    8.76197  -15.19672
      H1   -11.46948    9.10516  -16.07038
       H    -6.63315    8.10364  -10.95944
       O    -5.72751    7.94589  -10.67567
      H1    -6.02894    7.44220   -9.88895
       H    -2.79827   10.26842  -17.76787
       O    -2.53991   10.15005  -16.87655
      H1    -3.36716   10.32190  -16.39795
       H    -5.11895   10.28919  -16.95372
       O    -5.25785   11.20053  -16.80995
      H1    -6.16237   11.17315  -16.59512
       H    -0.45205    4.47932  -18.52491
       O    -0.70637    4.85133  -17.68713
      H1    -0.61521    4.05921  -17.09817
       H    -9.44167    8.50931  -15.71110
       O    -8.61380    8.43021  -16.25252
      H1    -8.17275    7.64478  -15.84138
       H    -8.29336   10.03647  -16.30779
       O    -8.30501   10.96367  -16.61879
      H1    -8.44782   11.45308  -15.75853
       H   -11.73610    9.16630  -18.65145
       O   -11.85625    9.57662  -17.79614
      H1   -11.68056   10.50747  -17.94851
       H    -5.19791   12.30542  -19.22664
       O    -5.95261   12.84894  -19.47772
      H1    -6.70040   12.24593  -19.54852
       H    -7.27519    4.24608  -13.42194
       O    -6.76439    5.07720  -13.50443
      H1    -7.33850    5.67484  -12.97044
       H    -0.29168    0.35185  -19.56401
       O    -1.11323    0.18207  -19.00156
      H1    -1.35066   -0.74587  -19.19684
       H    -3.26850    2.26163  -15.64269
       O    -3.14881    1.70952  -14.83165
      H1    -3.16522    2.46307  -14.24684
       H    -1.43045    7.01107  -17.07213
       O    -1.98576    7.35746  -16.35909
      H1    -2.27200    8.29051  -16.65384
       H    -6.31537    8.39165  -18.50175
       O    -7.29731    8.32974  -18.64570
      H1    -7.68112    8.26206  -17.75506
       H     1.13874    4.68328  -17.09283
       O     1.71404    4.53838  -16.32104
      H1     2.24650    5.34376  -16.28971
       H    -3.63479    6.68079  -12.96655
       O    -3.58301    6.77786  -12.02968
      H1    -4.41591    7.20155  -11.83052
       H   -12.69235    3.76295  -18.80345
       O   -12.91748    4.72785  -18.97071
      H1   -13.79282    4.85901  -18.50555
       H   -12.82465    3.41015  -16.00056
       O   -13.68085    3.79507  -16.30812
      H1   -14.18638    2.97809  -16.52379
       H   -12.79104    8.02106  -11.95573
       O   -13.04583    7.15616  -12.29138
      H1   -12.41620    6.84777  -12.95138
       H    -4.15439   12.53042  -15.63743
       O    -3.63813   13.33752  -15.38535
      H1    -3.96971   13.98209  -15.97539
       H    -8.48784    2.77775  -13.07718
       O    -7.54085    2.66530  -12.77384
      H1    -7.12061    2.19796  -13.55348
       H   -10.41603    0.56053  -16.79272
       O   -10.09399    1.44692  -17.12199
      H1    -9.12334    1.25471  -17.13836
       H    -6.98100    5.00362  -18.23636
       O    -6.21333    5.54997  -18.32294
      H1    -6.58359    6.43801  -18.46413
       H    -6.88657   14.06492  -17.44056
       O    -7.85612   14.13881  -17.54998
      H1    -8.06872   13.70595  -18.40814
       H   -12.10110    6.24068  -15.84277
       O   -12.15900    6.10927  -14.88762
      H1   -11.62617    5.28664  -14.82554
       H    -5.27793    5.46982  -10.10761
       O    -4.48227    4.93382  -10.16271
      H1    -4.01121    5.34173  -10.92962
       H    -7.57439   12.01628  -12.71033
       O    -6.90733   11.73301  -12.03612
      H1    -6.22184   11.40911  -12.68439
       H    -3.80717   11.23656  -12.92116
       O    -4.64844   11.13432  -13.44699
      H1    -4.54233   10.37934  -14.04035
       H    -8.56236   11.37331  -18.59841
       O    -8.55767   11.86586  -19.47301
      H1    -9.29546   12.43672  -19.50469
       H    -0.85700    7.96428  -14.96779
       O    -0.87016    7.77284  -14.04074
      H1    -0.18962    8.32941  -13.66488
       H    -9.26672    3.41461  -18.20360
       O    -8.92892    4.22345  -18.61191
      H1    -9.56719    4.83205  -18.13970
       H   -10.27843   12.19164  -16.98791
       O   -11.20186   12.46068  -17.16797
      H1   -11.02912   13.19458  -17.72727
       H     0.39813    9.46880  -17.16795
       O     0.23055   10.03349  -16.41188
      H1    -0.71649   10.06221  -16.49362
       H    -7.95503    0.09711  -15.22268
       O    -7.79622   -0.51620  -15.97549
      H1    -6.95308   -0.90698  -15.73059
       H   -11.16509    5.92821  -18.33690
       O   -10.62080    6.04516  -17.50738
      H1   -10.47858    6.96879  -17.65652
       H    -4.21469    8.20651  -18.44800
       O    -4.74957    8.62109  -17.71237
      H1    -4.32661    8.13198  -16.99771
       H   -10.95009    3.12562  -13.02252
       O   -10.26243    3.46728  -12.49885
      H1   -10.06051    2.70102  -11.88964
       H     0.46153    5.06666  -15.20846
       O    -0.01690    5.13432  -14.34739
      H1    -0.65751    5.83285  -14.56492
       H     1.03585    8.99346  -19.36389
       O     1.43709    8.45524  -18.64651
      H1     2.36148    8.69245  -18.67120
       H    -5.14439   15.78452  -18.20099
       O    -5.09588   14.92863  -17.75830
      H1    -5.51952   14.33337  -18.43611
       H     0.06842    2.20366  -15.52450
       O    -0.41777    2.45146  -16.36553
      H1    -1.26938    1.94019  -16.25275
       H   -12.29235    1.54362  -19.45684
       O   -11.65093    2.23754  -19.13194
      H1   -11.28188    1.76906  -18.32308
       H   -11.90502    2.18279  -14.80921
       O   -11.27063    2.81945  -15.07005
      H1   -10.75200    2.32985  -15.75084
       H    -4.78773    3.04696  -10.78846
       O    -4.99333    2.26399  -11.34644
      H1    -5.91828    2.39520  -11.41058
       H    -3.57037    5.36006  -14.32747
       O    -3.76195    6.24437  -14.75462
      H1    -2.94988    6.37458  -15.31703
       H    -4.94358    3.39713  -19.02433
       O    -5.17220    2.52679  -18.63746
      H1    -5.35930    2.05366  -19.47414

