180
frame 3 | Written by MDAnalysis XYZWriter (release 2.4.3)
       H     8.17480  -16.11335    4.57209
       O     8.03525  -15.54547    5.31686
      H1     8.79887  -15.01433    5.29260
       H    11.76481  -16.52115   16.01864
       O    11.60201  -16.18938   16.87126
      H1    10.70715  -15.75505   16.81614
       H     9.52741  -14.35754   15.86559
       O     9.15401  -14.66048   16.70747
      H1     9.35655  -14.00336   17.39033
       H     4.38807  -10.55305   11.52631
       O     3.59387  -10.06150   11.58942
      H1     2.93161  -10.67338   11.93595
       H     6.10280  -19.08913    6.04256
       O     5.79170  -18.36750    6.53956
      H1     6.52804  -18.22028    7.08815
       H     3.12600  -16.88493   15.64512
       O     2.54322  -17.66235   15.54801
      H1     2.38144  -17.57209   14.56403
       H     9.65153  -16.58608    7.74223
       O     8.72828  -16.56066    7.64937
      H1     8.53013  -16.34485    6.69832
       H     7.82233  -18.49777   12.96777
       O     7.78966  -18.06565   13.82200
      H1     6.86136  -18.31054   14.08926
       H     4.22990  -11.76688    7.53130
       O     4.52513  -11.97867    8.43432
      H1     4.33953  -11.08552    8.79929
       H     0.79339  -18.92664   10.04917
       O     0.58408  -18.48089   10.89248
      H1    -0.17194  -19.01624   11.18879
       H    16.16911  -18.25955   13.78587
       O    15.34651  -18.55869   14.23188
      H1    14.71140  -18.01332   13.74841
       H     3.12444  -17.03213   12.68857
       O     2.72692  -17.91924   12.81622
      H1     2.23165  -18.03955   11.97712
       H    15.14260  -13.84516   13.14474
       O    15.55599  -14.45232   12.53698
      H1    15.95807  -13.82363   11.91299
       H     5.68396  -11.64407   13.22301
       O     5.73320  -11.60314   12.28735
      H1     5.18791  -12.35343   11.98681
       H     3.94559  -19.26242   12.20334
       O     4.79070  -19.48627   11.68683
      H1     4.37170  -19.82295   10.84956
       H    15.35733  -15.47253   16.78529
       O    15.05914  -16.36940   16.88344
      H1    14.75655  -16.68812   16.01479
       H    10.54817  -15.61402   11.55830
       O    11.36166  -15.63558   12.05634
      H1    11.96654  -15.22860   11.35186
       H     4.49675  -17.43891    7.54190
       O     3.96843  -16.95577    8.20734
      H1     4.56242  -17.12207    8.98152
       H    12.02459  -13.91524   14.69746
       O    12.90311  -13.56853   14.74145
      H1    13.05044  -13.69123   15.70915
       H     9.90723  -13.21630   13.93827
       O    10.12857  -14.09073   14.21782
      H1    10.30525  -14.50390   13.36413
       H     4.33192  -18.05990   15.06407
       O     5.22565  -18.42408   15.07723
      H1     5.48967  -18.36547   16.05662
       H    10.16996  -11.19165   15.86951
       O     9.51802  -11.48126   15.21465
      H1     8.74198  -11.59481   15.84388
       H     1.49209  -16.78368   16.55897
       O     1.00878  -16.04951   16.99624
      H1     0.10298  -16.39796   17.04404
       H     3.58245  -13.63011   18.36626
       O     3.21227  -13.23787   17.55708
      H1     2.38442  -12.82908   17.82503
       H    -1.11923  -16.49519   10.04508
       O    -0.32998  -15.97062   10.19204
      H1     0.31806  -16.59456   10.61146
       H     4.92437  -18.59499   17.95051
       O     5.52863  -17.87025   17.65951
      H1     4.82406  -17.18326   17.43311
       H     7.30718  -13.02801    6.48661
       O     7.83399  -12.32675    6.03603
      H1     8.11131  -12.68083    5.17041
       H     2.24529  -12.08532   14.12580
       O     2.95841  -12.10001   14.75725
      H1     2.95141  -12.94635   15.13264
       H    13.20052  -13.68255   10.24292
       O    13.26100  -14.61875   10.56265
      H1    13.76933  -14.51923   11.36873
       H     8.74504  -18.93269   10.53640
       O     8.22048  -18.36084   11.10802
      H1     7.39647  -18.28778   10.61864
       H    16.40597  -18.70202   11.82961
       O    16.29932  -19.66603   11.69509
      H1    15.52771  -19.71353   11.08668
       H     0.68983  -14.47806   15.69461
       O     0.42127  -13.85991   14.98139
      H1     0.15889  -14.42094   14.21290
       H     5.00978  -13.82936   10.69271
       O     4.19992  -13.39994   11.01451
      H1     3.93371  -12.86841   10.19406
       H     7.47808  -14.49477   10.91101
       O     6.59553  -14.76619   11.12341
      H1     6.80475  -14.94416   12.06636
       H     5.76961  -13.86279   19.74399
       O     5.95302  -13.11806   19.13703
      H1     6.10805  -12.37419   19.71383
       H    14.60430  -15.29107    7.86053
       O    14.90102  -15.70304    8.67735
      H1    14.24106  -15.23034    9.25495
       H     9.26429  -19.18623   16.65801
       O     9.27593  -19.50966   15.77071
      H1     8.68334  -18.99587   15.29819
       H     2.26484  -12.66401   12.38627
       O     1.60041  -12.01419   12.32456
      H1     1.00565  -12.52184   11.68751
       H     8.71441  -12.08029   13.33157
       O     8.42168  -12.52215   12.50287
      H1     7.45393  -12.37344   12.62672
       H    12.75154  -16.55153    7.37713
       O    11.93222  -16.94412    7.72324
      H1    12.22400  -17.13697    8.62114
       H    12.23031  -18.28539   10.82998
       O    11.56234  -17.71644   10.41497
      H1    11.52368  -16.95171   11.05246
       H     3.04538  -18.50815    8.61210
       O     2.34876  -19.13313    8.79232
      H1     1.74896  -18.80210    8.10077
       H     6.65533  -11.92169   17.19931
       O     7.60153  -11.60965   17.23252
      H1     7.87473  -12.07377   18.04062
       H     3.90109  -15.57714    7.35978
       O     3.98997  -14.81389    6.75274
      H1     4.98406  -14.85474    6.63239
       H    12.18010  -17.24768   17.92189
       O    12.53130  -17.85793   18.62428
      H1    11.76370  -17.77007   19.19714
       H     9.42906  -10.48838   11.64650
       O     9.05756  -10.01403   10.85800
      H1     8.30651  -10.56930   10.70528
       H     4.92113  -15.23746   16.35095
       O     4.16195  -15.80769   16.42083
      H1     3.62181  -15.16577   16.89021
       H     5.51650  -17.94743   10.79962
       O     5.84758  -17.35619   10.13890
      H1     5.84953  -16.52223   10.58838
       H    10.50423  -19.17723    6.50590
       O    11.29211  -19.57822    6.91289
      H1    11.70561  -18.69287    7.17095
       H     8.77679  -16.57986   10.68740
       O     9.16755  -15.76544   10.35033
      H1     9.02198  -15.69240    9.41754
       H     4.78470  -15.60857   12.97274
       O     3.84621  -15.40768   12.98177
      H1     3.61699  -14.99326   12.14140
       H     9.63124  -13.92496   19.82422
       O     9.64559  -13.42142   19.01348
      H1    10.25886  -12.63935   19.33846
       H     4.60179  -11.85495   15.06658
       O     5.60011  -11.87542   14.91660
      H1     5.96766  -11.16584   15.45163
       H     6.94733  -14.70228    8.04788
       O     6.40669  -14.08470    7.51833
      H1     5.87488  -13.61486    8.17374
       H    12.69037  -14.88630   17.81012
       O    12.80342  -13.90502   18.12121
      H1    13.57238  -13.94665   18.67550
       H     7.59313  -14.36178   16.25164
       O     6.62432  -14.52248   16.01195
      H1     6.53348  -13.73373   15.45826
       H     8.25353  -16.20688   17.50399
       O     8.12327  -16.95611   18.11365
      H1     7.11996  -17.05161   18.10547
       H     6.79073  -15.46134   14.60201
       O     6.62983  -15.73588   13.66113
      H1     7.24626  -16.51627   13.76303
       H     8.02973  -18.11203    5.11658
       O     8.64215  -18.50692    5.81075
      H1     8.63788  -17.89483    6.54116
       H    12.25750  -16.63368   13.53393
       O    12.52530  -17.20226   14.25918
      H1    12.14598  -18.01983   13.90788

