180
frame 6 | Written by MDAnalysis XYZWriter (release 2.4.3)
       H   -15.05956    0.92199   -9.64811
       O   -14.79551    1.76607   -9.21283
      H1   -14.60498    2.28075  -10.02568
       H   -16.36218   -7.36606   -2.75492
       O   -15.92412   -7.23129   -3.61364
      H1   -16.37864   -7.81076   -4.25523
       H   -12.31589   -2.99763   -4.47359
       O   -12.68303   -2.36348   -3.80664
      H1   -13.53284   -2.83645   -3.72790
       H   -11.84102   -7.15465   -1.55115
       O   -11.92492   -7.88242   -2.21388
      H1   -11.06328   -7.87240   -2.63034
       H   -18.13282    1.94746   -7.19851
       O   -18.92821    1.92431   -7.75156
      H1   -18.94144    0.99690   -8.01461
       H   -15.77079   -6.72485    1.60685
       O   -15.58133   -5.98359    2.16559
      H1   -14.97404   -6.45630    2.78308
       H   -14.17630    1.54949   -6.06240
       O   -14.25633    2.37927   -6.57682
      H1   -14.27083    2.03485   -7.49725
       H    -9.92726   -3.75138   -5.33844
       O   -10.90679   -3.82854   -5.16419
      H1   -11.01519   -4.80383   -5.40926
       H   -10.79575   -2.33546   -0.15340
       O   -10.11507   -1.70605   -0.44567
      H1    -9.35980   -2.18453   -0.03183
       H   -12.29071    2.47144   -1.93049
       O   -11.84740    1.80027   -1.42744
      H1   -11.25642    1.26761   -1.99309
       H   -13.61047    1.22768   -1.25678
       O   -14.58551    1.28204   -1.28961
      H1   -14.73281    2.21280   -1.01103
       H    -9.19737   -6.85419   -8.57863
       O    -9.91333   -6.15437   -8.41018
      H1   -10.52763   -6.32482   -9.13781
       H   -12.63727   -3.17364   -9.59745
       O   -12.10876   -2.36718   -9.82971
      H1   -12.02472   -1.99823   -8.93195
       H   -15.32268   -4.10362   -8.76593
       O   -16.23507   -4.04446   -8.50928
      H1   -16.22809   -3.29759   -7.86488
       H   -16.60510   -3.40903   -0.57859
       O   -16.92049   -3.09191   -1.39129
      H1   -17.88763   -2.88546   -1.26774
       H   -13.12159   -3.31972    0.73972
       O   -12.14558   -3.29822    0.53155
      H1   -11.64587   -3.41533    1.33843
       H   -10.91954   -6.02187   -7.11352
       O   -11.47138   -6.15165   -6.26925
      H1   -11.19541   -7.01474   -6.04376
       H   -17.22089   -7.50428   -9.15603
       O   -17.12722   -8.21948   -9.87140
      H1   -16.26945   -8.67278   -9.57558
       H   -13.82792   -0.92217   -5.17025
       O   -13.98688   -0.55515   -6.04777
      H1   -13.21667   -0.90569   -6.54573
       H   -13.14548   -9.46957   -1.48077
       O   -14.00021   -9.88289   -1.30207
      H1   -14.04587  -10.78971   -1.61940
       H   -16.56644   -5.64223   -7.73410
       O   -17.10163   -6.45402   -7.79485
      H1   -17.99203   -6.07012   -7.81522
       H   -18.07892   -1.91211   -5.89702
       O   -18.73406   -1.96859   -5.15458
      H1   -18.21436   -2.10439   -4.33910
       H   -13.40955   -8.66426   -3.33262
       O   -13.78369   -8.84562   -4.22238
      H1   -14.52963   -8.21436   -4.14479
       H   -16.02323   -9.74492    1.29734
       O   -15.47151   -8.95043    1.07295
      H1   -15.00356   -9.17405    0.23461
       H   -18.30779    0.69350   -0.48571
       O   -18.27843    0.92689    0.44877
      H1   -17.43225    0.49371    0.66699
       H   -15.91383   -1.81554  -10.66610
       O   -16.83924   -2.09783  -10.65324
      H1   -16.87390   -2.71230   -9.95989
       H    -9.32780   -1.16492   -4.02252
       O    -8.61387   -0.96901   -4.68990
      H1    -7.94665   -0.68749   -4.03823
       H   -18.01954  -11.73421   -5.12092
       O   -17.13099  -11.74416   -4.69384
      H1   -17.34208  -10.91714   -4.11756
       H   -15.33229   -3.00209    2.06808
       O   -14.91744   -2.62317    1.28618
      H1   -15.33466   -1.76504    1.23450
       H   -14.18153   -9.81310   -9.79918
       O   -14.94885   -9.37708   -9.40365
      H1   -14.73085   -8.48523   -9.64728
       H   -17.19750   -1.24588   -7.67370
       O   -16.49962   -1.60439   -7.19306
      H1   -15.97560   -0.81529   -7.02299
       H   -15.25729    0.27793    0.22522
       O   -15.55086   -0.05099    1.12210
      H1   -14.87592    0.29445    1.70705
       H   -14.00873   -0.35463  -11.04148
       O   -14.61449   -0.82068  -10.44841
      H1   -13.96950   -1.21912   -9.82688
       H   -18.03394  -10.14226   -1.02143
       O   -18.50760  -10.97042   -1.00790
      H1   -19.13720  -10.80896   -1.71588
       H   -12.03115   -9.30784   -5.08600
       O   -11.31113   -9.15196   -5.74727
      H1   -10.88746  -10.02304   -5.75643
       H   -15.86046    2.82468   -6.50449
       O   -16.86145    2.89337   -6.37337
      H1   -16.90931    3.05447   -5.39949
       H    -9.04442   -0.15187   -6.35864
       O    -9.73879   -0.11914   -7.05268
      H1   -10.43497    0.46600   -6.69849
       H    -9.70562   -6.03162   -1.63255
       O    -8.83612   -6.20639   -1.95197
      H1    -8.31329   -6.42827   -1.19187
       H   -18.25955   -5.41951    3.69102
       O   -18.27870   -5.38480    2.70541
      H1   -17.36060   -5.50246    2.52743
       H   -15.91191   -1.47061   -2.34864
       O   -15.94937   -0.62850   -2.80510
      H1   -15.23487   -0.10633   -2.42370
       H   -11.49789   -2.46752   -6.79247
       O   -11.87232   -1.70587   -7.29967
      H1   -11.09926   -1.06863   -7.32062
       H   -12.19374   -7.68541    2.67563
       O   -12.37773   -7.18060    1.85451
      H1   -12.97418   -7.74953    1.34958
       H   -17.81833   -7.74817   -0.84357
       O   -16.90940   -7.51745   -0.83551
      H1   -16.49651   -8.09893   -0.17854
       H   -18.84273   -5.04608   -2.44439
       O   -19.65403   -5.19269   -1.93924
      H1   -19.28671   -5.61199   -1.13648
       H   -17.75575    2.44820   -3.07277
       O   -17.25019    3.02961   -3.70117
      H1   -17.78367    3.87659   -3.70633
       H   -19.00152   -8.18247   -2.85727
       O   -19.36282   -8.00614   -1.96654
      H1   -19.65697   -7.06955   -2.11458
       H   -15.57057   -2.86030   -5.23335
       O   -15.31202   -3.25911   -4.38323
      H1   -15.69813   -4.12057   -4.39267
       H   -18.46324   -0.43383   -5.01755
       O   -18.18648    0.47916   -5.10060
      H1   -17.31894    0.45969   -4.67313
       H   -12.68166   -7.14745   -7.31585
       O   -13.32319   -7.24937   -8.03431
      H1   -13.47301   -8.18431   -7.87036
       H   -11.38076   -4.90835   -1.88481
       O   -11.45527   -5.46499   -1.05993
      H1   -11.60748   -4.88405   -0.31697
       H   -15.98327   -8.99776   -2.68576
       O   -16.61926   -9.73051   -2.62209
      H1   -16.28547  -10.18547   -1.84633
       H   -14.43008  -11.44449   -5.60577
       O   -14.14569  -10.75669   -6.29104
      H1   -14.15387   -9.92121   -5.82764
       H   -18.18277   -8.74072   -5.16962
       O   -18.66979   -9.01499   -4.41909
      H1   -19.56972   -9.05258   -4.86034
       H   -19.87003   -1.10083   -8.91407
       O   -19.26806   -0.70170   -8.15702
      H1   -19.94864   -0.57187   -7.46150
       H   -16.84454   -5.73821   -3.16453
       O   -17.41098   -4.99793   -3.29355
      H1   -17.06179   -4.28651   -2.72056
       H   -10.80463   -0.80555   -2.22187
       O   -11.03013   -0.29861   -3.02913
      H1   -11.68224   -0.90286   -3.47462
       H   -14.13069   -4.87939  -10.05772
       O   -13.58150   -4.57992   -9.24777
      H1   -13.17085   -5.38396   -8.83340
       H   -17.55809    0.33916   -2.38004
       O   -18.34028    0.83709   -2.22266
      H1   -19.00377    0.56631   -2.86879
       H   -16.68441   -9.15163   -6.66550
       O   -16.16555   -8.45334   -6.26160
      H1   -16.45593   -7.69782   -6.73455
       H   -15.85702   -5.41441  -11.52500
       O   -14.89729   -5.14633  -11.65143
      H1   -14.94903   -4.47239  -12.29130

