180
frame 9 | Written by MDAnalysis XYZWriter (release 2.4.3)
       H   -16.39740   -5.43884   -2.53853
       O   -16.45997   -4.56254   -3.00153
      H1   -17.20453   -4.63533   -3.72230
       H   -19.15194   -2.61585  -12.18964
       O   -19.40277   -2.87780  -13.08835
      H1   -19.82034   -3.74892  -13.10214
       H   -17.61963  -13.81170   -9.21841
       O   -17.15702  -14.13959  -10.01812
      H1   -16.54443  -14.82927   -9.81921
       H   -17.38869   -1.59977  -14.12306
       O   -16.80389   -1.00454  -13.65978
      H1   -16.33499   -1.64377  -13.14161
       H   -16.27340   -5.75625   -7.73919
       O   -16.71570   -6.14092   -7.03384
      H1   -17.25711   -5.53844   -6.48724
       H   -15.67685   -1.95208  -11.46611
       O   -15.16549   -2.69776  -11.82308
      H1   -15.74527   -3.24346  -12.42395
       H   -17.42579   -8.58612  -14.32990
       O   -18.11367   -7.92779  -14.21593
      H1   -18.05428   -7.57820  -13.29400
       H   -11.49040   -9.82338  -13.40959
       O   -11.86040  -10.29239  -14.19408
      H1   -11.09670  -10.64448  -14.72879
       H   -17.62162   -3.97349  -13.60521
       O   -16.74138   -4.22804  -13.86063
      H1   -16.68680   -5.09088  -13.36600
       H   -12.63433   -5.46654  -11.68389
       O   -12.13660   -5.50066  -10.82522
      H1   -12.22582   -4.61963  -10.42662
       H   -15.68361   -9.88673  -14.66756
       O   -15.31659   -9.34067  -13.96006
      H1   -15.12751   -9.89367  -13.18152
       H   -14.27630   -3.44650   -4.78205
       O   -15.06322   -3.84680   -5.19567
      H1   -15.44304   -4.19545   -4.38125
       H   -20.23148   -2.99457  -10.56587
       O   -19.27713   -2.89867  -10.39796
      H1   -18.89985   -3.75314  -10.08591
       H   -10.70039   -8.24714   -6.19217
       O   -11.16081   -7.62669   -5.60212
      H1   -11.55840   -7.04456   -6.23604
       H   -15.77684   -3.37117   -8.85689
       O   -15.26195   -4.03597   -9.35669
      H1   -15.20818   -3.55754  -10.20595
       H    -7.37986   -6.77099   -9.76152
       O    -8.03521   -7.49328   -9.90630
      H1    -8.63533   -7.08848  -10.52759
       H   -10.20487  -12.11601   -9.85729
       O    -9.52666  -11.89957   -9.19009
      H1    -9.24587  -12.75978   -8.91441
       H   -15.90388   -2.80904   -6.41146
       O   -16.10098   -2.37029   -7.22793
      H1   -15.73674   -1.44522   -7.09887
       H   -14.42130  -10.36261  -17.20241
       O   -15.15675  -10.87048  -17.58981
      H1   -15.82289  -10.81658  -16.94736
       H   -18.54521   -6.99318  -15.55740
       O   -18.89717   -6.46877  -16.27814
      H1   -19.60545   -6.96267  -16.71137
       H   -18.21714   -5.78383  -10.89890
       O   -17.89214   -5.09692  -10.26875
      H1   -17.05235   -4.84596  -10.59507
       H   -15.19117  -13.93875  -12.10080
       O   -15.82360  -13.85424  -12.87093
      H1   -15.27872  -13.55074  -13.63708
       H   -14.89224  -12.62743  -15.94771
       O   -15.22039  -13.54190  -15.82161
      H1   -14.51895  -14.14518  -15.53872
       H   -12.92460   -7.96325   -9.14641
       O   -13.60331   -7.32103   -8.91619
      H1   -13.40977   -6.61499   -9.56382
       H   -19.01420   -5.35311   -4.85729
       O   -18.23785   -4.80978   -5.05744
      H1   -18.54690   -3.93984   -5.30446
       H   -13.62453   -6.36534   -7.32753
       O   -13.44744   -6.13915   -6.39648
      H1   -14.08259   -5.39848   -6.27686
       H   -19.44814   -2.51659   -7.09421
       O   -18.85557   -2.30432   -6.31172
      H1   -17.92773   -2.23729   -6.70332
       H    -9.79887   -6.75950  -12.81699
       O    -9.49931   -6.60792  -11.87469
      H1   -10.30515   -6.40351  -11.34106
       H   -14.33140  -11.41074  -12.40837
       O   -14.90087  -11.21688  -11.71301
      H1   -15.42112  -12.06091  -11.57409
       H    -9.13782  -10.03956  -12.55341
       O    -9.92698   -9.46870  -12.35431
      H1    -9.48982   -8.60593  -12.18578
       H   -13.96898   -9.08871   -3.11640
       O   -13.34684   -8.32394   -3.11185
      H1   -13.07522   -8.17315   -4.06952
       H   -11.67642   -3.12264  -13.67551
       O   -11.22653   -3.81139  -14.16401
      H1   -11.65701   -3.86244  -15.04620
       H    -9.57998   -5.68467   -8.55084
       O    -9.95280   -6.04565   -7.75407
      H1    -9.91774   -7.04492   -7.87525
       H   -19.89135   -7.53748  -11.43679
       O   -19.23581   -6.91171  -11.78123
      H1   -19.73479   -6.52084  -12.52026
       H   -10.27091  -10.62073   -6.49900
       O    -9.92375  -11.06057   -5.74627
      H1   -10.73864  -11.17164   -5.17618
       H   -10.65948   -8.95152   -8.69081
       O   -10.20517   -9.03589   -7.79543
      H1    -9.26926   -9.11519   -7.97299
       H   -15.80801   -9.54889   -4.12655
       O   -15.12695  -10.14156   -3.80672
      H1   -15.60728  -10.93819   -3.67161
       H   -18.43736   -7.90738   -9.64105
       O   -18.58690   -7.77481   -8.67520
      H1   -18.05673   -7.04889   -8.31981
       H   -18.74303  -12.07342   -8.09623
       O   -18.80409  -13.00229   -8.23346
      H1   -19.66789  -13.30938   -7.84831
       H   -12.47589  -11.85822  -13.77095
       O   -12.94864  -12.63541  -13.37032
      H1   -12.87455  -13.36987  -14.00784
       H   -12.42305  -10.11773   -4.04365
       O   -12.39090  -11.03238   -3.96237
      H1   -13.30760  -11.26430   -4.00034
       H   -10.40091   -7.36552  -15.24664
       O    -9.55755   -7.39108  -14.74538
      H1    -9.07736   -6.70293  -15.22016
       H   -17.02390   -3.66315  -16.98965
       O   -16.33901   -3.19992  -16.40824
      H1   -16.33120   -3.78531  -15.64461
       H   -11.66320   -3.29704   -8.44707
       O   -12.23650   -3.17345   -9.24161
      H1   -13.09232   -3.42103   -8.90765
       H   -14.98853   -8.03345   -9.74999
       O   -15.88103   -8.06871  -10.15738
      H1   -16.16746   -8.97441  -10.39421
       H   -16.18875  -13.34318   -6.03713
       O   -15.81225  -12.60471   -5.60395
      H1   -16.53221  -12.18431   -5.13551
       H   -19.17744  -13.57549  -13.17676
       O   -18.49416  -12.93404  -13.37452
      H1   -17.71231  -13.23710  -12.82898
       H   -19.15376   -9.04681   -3.52368
       O   -19.41163   -8.67748   -4.40903
      H1   -19.80092   -7.75394   -4.28591
       H   -12.72835  -14.07455   -8.52908
       O   -12.73638  -14.96811   -8.31864
      H1   -11.85768  -15.14545   -8.03700
       H   -16.97897  -11.89748  -14.64256
       O   -17.05919  -11.21432  -15.30233
      H1   -17.98776  -11.26485  -15.45488
       H   -17.86074   -9.24374   -7.99654
       O   -17.73070  -10.19672   -7.80860
      H1   -16.77377  -10.31729   -7.90922
       H   -17.69483   -8.41984   -4.89297
       O   -16.71689   -8.32740   -4.96845
      H1   -16.57518   -7.59270   -5.64448
       H   -11.22628   -9.40064  -10.55559
       O   -11.85975   -9.47923   -9.84719
      H1   -12.00880  -10.40016   -9.69454
       H   -13.53688  -12.76786   -9.77191
       O   -13.14935  -12.25630   -9.02994
      H1   -13.83487  -11.73856   -8.66600
       H   -19.42046  -12.33292  -10.61678
       O   -19.53655  -11.67742  -11.29743
      H1   -18.99221  -11.95882  -12.07964
       H   -12.98046  -13.89670  -11.81905
       O   -13.49316  -14.52679  -11.18844
      H1   -12.86119  -14.93189  -10.56676
       H   -15.09757  -11.22293   -6.70863
       O   -14.66870  -10.63896   -7.32413
      H1   -14.57894   -9.78793   -6.87990
       H   -11.67577   -4.97972   -6.43034
       O   -11.60958   -4.16968   -5.87761
      H1   -10.68169   -3.85410   -5.93143
       H   -12.13968  -10.46951  -17.15729
       O   -12.78641  -10.08316  -16.63129
      H1   -12.46650  -10.04973  -15.74324
       H   -15.21579   -7.32778  -13.15846
       O   -15.66195   -6.83255  -12.44577
      H1   -15.56126   -7.33703  -11.60188

