180
frame 6 | Written by MDAnalysis XYZWriter (release 2.4.3)
       H     8.75035  -15.85705    5.21259
       O     9.03164  -15.19115    5.85961
      H1     9.97334  -15.10783    5.55564
       H    11.28974  -12.47373   -3.95163
       O    10.45673  -12.85449   -4.31508
      H1    10.32111  -12.26095   -5.07359
       H     8.35002   -8.87084   -2.37971
       O     8.47725   -8.13566   -1.80387
      H1     7.71010   -8.05386   -1.31083
       H    11.34251   -7.40720    1.56820
       O    11.74802   -7.17734    2.40677
      H1    11.21401   -6.40324    2.69907
       H     6.88952  -13.67006    2.75931
       O     7.49802  -13.34847    2.14948
      H1     7.55303  -12.49691    2.54798
       H    10.89527   -8.19620    8.72356
       O    10.61241   -7.34666    8.41556
      H1    10.48589   -6.84380    9.21733
       H    11.26317  -12.95441    0.42122
       O    12.14389  -12.61839    0.72792
      H1    11.86328  -11.91079    1.30152
       H     8.52360  -10.27931    4.41886
       O     8.22815  -11.01097    3.87802
      H1     7.34234  -10.74725    3.59704
       H    13.13803  -10.92888   -1.06071
       O    12.39697  -10.46658   -1.50553
      H1    11.65466  -10.86600   -1.00303
       H    12.45143   -6.27966   -2.23458
       O    12.45068   -5.35466   -2.48753
      H1    13.37974   -5.04757   -2.47740
       H    14.74332   -7.37239   -4.59849
       O    14.72633   -8.15102   -4.04373
      H1    14.02014   -7.86698   -3.49211
       H     7.49725  -11.31704    8.22796
       O     6.60896  -11.44970    7.81329
      H1     6.71598  -12.16030    7.11504
       H    11.57774   -7.60845   -1.42876
       O    11.88306   -8.05212   -2.26303
      H1    12.12301   -8.92420   -1.94792
       H    11.86803   -4.44920   -1.04270
       O    11.18475   -4.42299   -0.33469
      H1    11.17482   -3.52057   -0.00877
       H    11.60197   -9.76225    9.54241
       O    11.57867   -9.74210    8.55612
      H1    10.76373  -10.21880    8.29393
       H     5.75408  -10.19357    6.76028
       O     5.45869   -9.37357    6.31191
      H1     5.51740   -9.56755    5.38618
       H     7.63368   -5.54657    5.45256
       O     7.44228   -4.80386    4.87272
      H1     8.24202   -4.69633    4.35184
       H    12.42602   -2.80324    5.27643
       O    11.87046   -3.27191    4.64285
      H1    12.56731   -3.80693    4.14150
       H    10.70276  -17.12131    0.55665
       O    10.48946  -16.75517    1.41247
      H1    10.28001  -15.81274    1.17835
       H     6.45539   -5.67082   -0.50726
       O     6.96973   -5.15856    0.09185
      H1     6.46405   -5.35110    0.94300
       H    13.41722   -9.94711    7.87441
       O    14.18605  -10.39708    8.20450
      H1    14.88746  -10.08092    7.59278
       H    13.04749  -14.03265    1.27032
       O    13.53517  -14.68451    1.77508
      H1    12.94937  -15.43551    1.84374
       H     5.11459   -6.67601    2.17439
       O     5.58197   -5.84491    2.33048
      H1     4.89867   -5.18658    2.42090
       H    17.77908   -6.91472    3.75099
       O    18.34848   -7.66650    3.94824
      H1    17.81759   -8.40763    3.76992
       H    15.02553   -7.91235   -1.30905
       O    14.38120   -7.82519   -0.66151
      H1    14.39027   -8.73363   -0.26546
       H     5.37662  -11.19433   -0.29185
       O     4.98270  -12.06379   -0.20494
      H1     5.32768  -12.41921    0.61148
       H    13.69119  -11.96224   -3.79466
       O    13.16862  -12.45737   -3.19677
      H1    12.83337  -11.76791   -2.53671
       H     9.41058   -8.62219    5.77816
       O     9.88928   -9.40281    5.46821
      H1    10.69283   -8.96750    5.12621
       H    11.85334  -10.39240    3.27415
       O    11.75118  -10.47555    2.33078
      H1    10.99205   -9.86582    2.26040
       H     8.14832  -13.70318    5.43082
       O     7.41952  -13.04897    5.59446
      H1     7.61048  -12.35155    4.91530
       H    15.71666   -7.33313    3.18641
       O    16.00026   -6.41022    3.29483
      H1    15.85407   -6.03694    2.38796
       H     4.95282   -9.19908    3.05327
       O     5.81423   -9.55333    3.38657
      H1     6.29632   -8.72774    3.65734
       H    13.68672  -14.24505    5.37051
       O    14.39136  -14.63815    4.83522
      H1    13.94207  -14.56475    3.95617
       H    12.57690   -7.85136    5.31037
       O    12.18145   -8.50154    4.69878
      H1    12.01832   -7.94159    3.92206
       H     9.07854  -11.86987    6.76352
       O     9.37742  -11.17475    7.39921
      H1     9.52650  -10.47112    6.72551
       H     9.29792   -7.64381   -4.19935
       O    10.18034   -7.72562   -4.53050
      H1    10.64305   -7.94564   -3.68793
       H    15.96398  -15.14818   -1.33418
       O    15.55752  -14.76851   -0.46713
      H1    14.60192  -14.90607   -0.43289
       H     6.17231  -13.64668    4.58722
       O     5.50690  -13.56271    3.83977
      H1     5.04733  -14.45174    3.94127
       H     8.96453  -10.72291   -4.44044
       O     8.44955  -10.43786   -3.70641
      H1     8.28656  -11.26735   -3.22582
       H     9.22539  -13.16630   -2.73990
       O     8.75297  -12.81298   -2.00815
      H1     7.87461  -13.12443   -2.18095
       H    11.68345  -15.21327    4.51328
       O    11.54677  -14.40226    5.03480
      H1    11.62301  -13.74301    4.35877
       H    15.21136   -6.37228    0.23752
       O    15.83363   -5.68800    0.60707
      H1    15.76006   -4.95880    0.01139
       H    11.26589  -16.94227    3.11255
       O    11.64271  -16.84573    3.98793
      H1    12.53846  -17.26671    3.94984
       H    12.54043   -5.86779    7.01070
       O    12.84235   -6.77650    6.79169
      H1    12.21121   -7.27340    7.32238
       H     9.73788   -9.65503   -0.72932
       O     9.84313  -10.48526   -0.27114
      H1     9.07265  -10.93350   -0.64901
       H     9.54505  -12.73895   10.23819
       O    10.24248  -12.18553    9.86598
      H1     9.80772  -12.04531    8.98024
       H    13.10740  -12.00580    7.66548
       O    13.20202  -12.83158    7.17590
      H1    12.35591  -13.04537    6.81624
       H     5.38174   -8.83360   -0.29916
       O     5.91604   -9.34971   -0.92664
      H1     5.28605   -9.39383   -1.63033
       H     8.88438  -14.04779    0.85578
       O     9.64743  -14.09519    0.27749
      H1     9.25694  -13.65045   -0.50492
       H    10.85448   -6.09619   -0.10155
       O    10.71569   -7.04711   -0.13385
      H1     9.88149   -7.15183   -0.59828
       H    10.37647   -4.67549    7.51546
       O    11.16608   -4.38023    7.08487
      H1    10.88269   -4.24331    6.11490
       H    13.33556  -10.00031    1.67027
       O    14.24987  -10.02130    1.32632
      H1    14.33071  -10.91020    1.01296
       H     6.67708   -7.06725    4.96726
       O     7.12754   -7.49706    4.24872
      H1     6.89314   -6.86769    3.57279
       H     7.33369   -8.28501    7.14180
       O     8.09481   -7.68424    7.03353
      H1     8.83194   -7.96290    7.61387
       H    15.41421   -9.65772    2.68595
       O    15.93813   -9.07323    3.33594
      H1    15.90631   -9.68289    4.06409
       H    14.33308   -5.08032    2.98797
       O    13.61452   -4.45552    2.66223
      H1    13.03870   -5.01929    2.14512
       H    16.74937  -11.88949    0.46117
       O    16.71010  -11.02486    0.05243
      H1    17.49750  -10.67766    0.43218
       H    16.44575  -13.58018    3.69114
       O    16.35423  -12.99358    4.51493
      H1    15.68129  -13.47336    5.00671
       H    15.44321   -7.03262    5.48738
       O    15.51622   -7.42474    6.33514
      H1    14.65751   -7.31051    6.74568
       H    10.52798   -3.88137    3.53673
       O     9.97375   -4.56793    3.11501
      H1     9.90410   -4.21668    2.23416

