180
frame 4 | Written by MDAnalysis XYZWriter (release 2.4.3)
       H    -5.37103   -2.91653  -11.18423
       O    -4.68425   -3.62565  -10.98737
      H1    -3.84976   -3.18710  -10.89303
       H    -5.34334   -8.00318   -2.60298
       O    -4.73419   -8.21030   -1.87047
      H1    -4.57991   -7.39370   -1.36128
       H    -4.62919   -3.00481   -7.40016
       O    -4.15290   -2.11715   -7.46832
      H1    -4.64652   -1.61078   -8.13533
       H    -4.35382   -1.33872   -6.06702
       O    -4.69801   -0.86736   -5.28637
      H1    -3.99786   -0.16420   -5.16511
       H    -9.07726   -1.53348   -8.63002
       O    -9.30042   -1.65204   -9.57815
      H1    -8.39844   -1.60135  -10.03964
       H    -6.70022  -10.24509  -10.81041
       O    -6.61860   -9.70696  -11.62568
      H1    -5.73273   -9.39809  -11.57051
       H    -2.69392   -5.79887   -6.59105
       O    -3.57908   -6.12105   -6.55430
      H1    -3.67383   -6.58006   -7.39289
       H    -3.99072   -2.19491   -2.73581
       O    -3.25742   -2.66139   -2.34658
      H1    -2.53397   -2.60005   -3.01941
       H   -11.44100   -5.76118  -10.06838
       O   -11.91398   -5.65119   -9.21824
      H1   -11.74615   -4.74002   -8.91250
       H    -9.03714   -5.98146   -4.93445
       O    -9.00903   -5.83378   -4.01217
      H1    -9.81930   -5.28529   -3.82362
       H    -8.36731   -4.48257   -9.58779
       O    -7.73894   -4.92166   -8.98553
      H1    -7.73647   -5.80543   -9.34836
       H   -10.62913  -11.53056   -9.78306
       O   -10.39641  -11.13910   -8.90508
      H1   -10.87921  -11.66784   -8.29315
       H    -7.83149   -4.13079   -4.23246
       O    -7.43135   -3.38693   -4.69750
      H1    -7.00176   -3.86656   -5.42261
       H   -10.43863  -13.48282   -6.42361
       O   -10.48588  -12.51595   -6.31236
      H1    -9.76793  -12.29469   -5.70120
       H    -6.82389    0.67908   -7.58694
       O    -6.70574   -0.23525   -7.23577
      H1    -6.06412   -0.20958   -6.49004
       H   -12.41334   -9.79079   -9.01158
       O   -12.79983   -8.99629   -9.36246
      H1   -12.86003   -8.46765   -8.54617
       H    -8.10012   -5.90939   -7.60281
       O    -8.08189   -6.30579   -6.72277
      H1    -7.15032   -6.42371   -6.48543
       H    -3.68868  -11.62058   -3.38558
       O    -3.75859  -12.10226   -4.20246
      H1    -4.51780  -11.67499   -4.61793
       H    -3.67327   -9.45381  -12.45051
       O    -3.94194   -9.61034  -11.52844
      H1    -3.34068   -9.16043  -10.93746
       H    -7.83036   -6.81356   -0.47833
       O    -8.15214   -5.87700   -0.30281
      H1    -7.42530   -5.52667    0.27016
       H    -1.55690   -3.44730   -8.55794
       O    -2.45691   -3.61336   -8.94630
      H1    -3.02914   -3.08662   -8.38466
       H   -11.18853   -8.01299  -10.29204
       O   -10.85304   -7.61674  -11.11393
      H1   -11.57132   -7.62479  -11.73067
       H   -12.26780   -1.32647   -4.37922
       O   -12.19455   -1.41719   -5.35202
      H1   -12.55984   -0.63732   -5.70883
       H    -7.42232   -2.91761  -11.48955
       O    -6.97043   -2.09558  -11.29205
      H1    -7.18155   -1.50668  -12.03804
       H   -15.09472   -7.88991   -4.83048
       O   -14.38880   -7.25816   -4.98258
      H1   -14.01945   -7.51756   -5.84793
       H    -7.26039   -8.21584  -10.29001
       O    -7.06604   -7.61868   -9.52630
      H1    -6.20174   -7.24209   -9.63080
       H   -12.43725   -6.78940   -7.84839
       O   -12.58765   -7.34223   -6.99714
      H1   -11.66827   -7.44680   -6.69338
       H   -11.85414  -10.44607   -4.83394
       O   -11.08889  -10.33801   -4.26591
      H1   -11.43916  -10.01748   -3.45773
       H   -10.55662   -8.87688   -5.47775
       O   -10.39335   -7.96546   -5.78081
      H1    -9.48617   -7.89459   -6.08616
       H   -11.56494   -4.26694   -3.55591
       O   -11.12828   -4.47874   -2.72655
      H1   -11.69818   -4.07484   -1.99922
       H    -7.08501   -6.27941   -4.20537
       O    -6.32809   -6.85595   -4.34962
      H1    -6.74336   -7.72501   -4.63310
       H    -8.02359   -8.53581   -1.69829
       O    -7.52194   -8.66169   -0.85953
      H1    -6.56691   -8.67041   -1.09937
       H    -7.83057   -9.85865   -5.68814
       O    -7.21359   -9.70426   -4.95762
      H1    -7.44833  -10.32689   -4.22016
       H    -4.39410   -5.89940   -9.38875
       O    -4.51258   -6.75209   -8.97780
      H1    -4.04170   -7.32511   -9.54647
       H    -5.03713   -5.12608   -3.40365
       O    -5.20170   -4.53175   -2.67523
      H1    -4.36812   -4.08972   -2.53704
       H    -8.54322   -0.81691   -6.83116
       O    -9.53422   -0.75820   -6.86234
      H1    -9.96284   -1.50413   -6.37723
       H    -2.75983  -11.54755   -7.56062
       O    -3.44986  -12.29352   -7.63803
      H1    -4.27023  -11.89998   -7.29929
       H   -13.06656   -8.46268   -2.60407
       O   -12.75147   -9.31848   -2.25245
      H1   -13.31505  -10.08640   -2.61576
       H   -11.92394   -2.21566   -8.60319
       O   -11.79513   -3.09876   -8.17956
      H1   -12.00043   -2.94938   -7.25674
       H    -5.53212   -1.16144   -3.71798
       O    -5.86616   -1.55875   -2.90121
      H1    -6.45614   -2.30622   -3.17228
       H    -9.26662   -9.03992   -3.47804
       O    -9.19303   -8.32704   -2.86979
      H1    -9.35043   -7.50270   -3.30865
       H    -8.03184  -12.31263   -2.87391
       O    -7.29850  -11.64798   -2.94113
      H1    -6.89786  -11.79535   -2.06349
       H    -3.73464   -5.34183  -11.30344
       O    -3.28780   -6.17648  -11.49426
      H1    -3.47373   -6.16096  -12.47687
       H    -8.95431   -3.35490   -6.10117
       O    -9.79047   -3.67460   -6.46501
      H1   -10.07315   -3.33679   -7.35751
       H    -3.64767   -7.51337   -3.29281
       O    -3.04535   -7.39649   -4.04425
      H1    -3.58724   -6.89534   -4.71948
       H    -3.87297   -5.58336   -0.52498
       O    -4.75541   -5.98586   -0.27575
      H1    -5.18652   -5.40095   -0.95863
       H   -13.29298   -6.55715   -3.78885
       O   -12.99944   -6.30197   -2.91930
      H1   -12.35167   -5.65390   -2.95262
       H    -8.94828   -3.95199  -12.64837
       O    -8.43936   -4.36171  -11.96103
      H1    -8.03987   -5.11204  -12.38300
       H   -11.86302  -11.42749   -6.38514
       O   -12.56326  -10.79158   -6.32127
      H1   -13.39457  -11.20081   -6.63532
       H    -5.77160   -0.18920   -8.95595
       O    -5.13265   -0.40173   -9.62239
      H1    -5.66151   -0.90660  -10.34039
       H    -9.85226   -3.57641   -1.74211
       O    -9.02543   -3.35442   -1.43020
      H1    -8.68003   -4.22203   -1.22092
       H    -6.07748  -10.48042   -6.28702
       O    -5.78925  -11.20192   -6.84801
      H1    -6.39619  -11.28469   -7.62659
       H    -1.91177   -7.96528   -9.29657
       O    -2.52567   -8.73573   -9.30028
      H1    -2.05025   -9.50140   -8.93057
       H    -8.61044   -8.87894   -7.76249
       O    -8.51988   -9.76112   -7.37636
      H1    -9.16440  -10.33992   -7.86563
       H    -7.61096  -11.94455   -9.15308
       O    -6.99472  -11.19378   -9.30108
      H1    -7.42630  -10.50225   -8.80722
       H   -10.08127   -8.84641   -1.41055
       O   -10.61643   -9.15918   -0.67169
      H1   -11.48315   -9.30706   -1.07415
       H    -2.11731  -10.03246   -4.42593
       O    -1.69344   -9.55303   -5.15737
      H1    -2.20328   -8.74155   -4.94172
       H   -12.41212   -5.46160   -5.77383
       O   -12.03402   -4.57516   -5.48187
      H1   -11.13093   -4.56685   -5.96983
       H   -13.80119   -5.87807  -11.25039
       O   -14.29464   -5.49469  -10.49582
      H1   -13.65010   -5.37981   -9.77178
       H    -4.81904   -4.85158   -6.74340
       O    -5.53766   -4.22645   -6.99398
      H1    -6.05530   -4.69818   -7.67574

