180
frame 8 | Written by MDAnalysis XYZWriter (release 2.4.3)
       H   -12.51586    7.36670   15.27959
       O   -11.92105    6.72481   15.75756
      H1   -11.76741    7.14947   16.60674
       H   -16.02944   18.82002   13.32118
       O   -16.93880   18.49084   13.43168
      H1   -16.78988   17.63037   13.85396
       H   -15.96883    6.40653    9.82302
       O   -15.63203    6.92579   10.59385
      H1   -16.14151    7.71302   10.57333
       H   -10.85818    7.28662   14.53074
       O   -10.41711    7.75088   13.75882
      H1    -9.50366    7.75859   14.11093
       H   -12.66007    6.78898   11.71020
       O   -13.44729    6.68859   12.28292
      H1   -14.19575    6.87078   11.68395
       H   -14.43684   17.04923    9.54733
       O   -14.55174   17.94075    9.09390
      H1   -14.27501   17.64658    8.19189
       H    -9.93213   15.07878   14.77768
       O   -10.36678   15.94461   14.83563
      H1   -10.84861   16.01420   13.97845
       H   -17.00036   15.60246   19.20304
       O   -17.24464   16.51391   19.28050
      H1   -18.16367   16.46736   18.87318
       H   -14.69028   14.15012   17.44154
       O   -14.05292   14.09037   16.70173
      H1   -13.51522   13.40623   17.10780
       H   -12.49395   10.14319   14.04607
       O   -11.88045   10.82293   14.18721
      H1   -11.14135   10.38016   14.61272
       H   -16.30951   15.24189   14.60009
       O   -17.15278   15.77364   14.56684
      H1   -17.00533   16.38892   15.32012
       H   -12.57762    3.80811   15.15094
       O   -11.86992    4.17261   14.58120
      H1   -11.67367    4.99256   15.08816
       H   -14.03768   16.14779   14.31531
       O   -14.17582   16.77344   13.61620
      H1   -13.95030   17.58836   14.11614
       H   -16.36756   11.09775    7.94017
       O   -17.15127   11.31065    7.44026
      H1   -17.70892   11.62569    8.17160
       H   -14.37567    8.56685   14.44610
       O   -13.42567    8.53049   14.36114
      H1   -13.32725    8.01122   13.52358
       H   -15.70660   17.58035   16.81127
       O   -16.09267   16.65202   16.77489
      H1   -16.56108   16.56882   17.64764
       H   -14.28352    3.04537   16.33497
       O   -14.63881    3.78217   15.80187
      H1   -14.57118    4.49218   16.42325
       H   -18.90252    4.59751   16.71327
       O   -18.27226    4.94949   17.36016
      H1   -18.53219    5.88257   17.35716
       H   -11.81358   14.33699   10.27713
       O   -11.33465   14.88578    9.63317
      H1   -10.51360   14.39464    9.51615
       H    -9.26142   13.79058   12.71906
       O    -9.10871   13.57716   13.66153
      H1    -9.11800   12.63080   13.59092
       H   -16.25532   10.03120   14.89272
       O   -15.92507    9.27053   15.37506
      H1   -16.53018    8.50425   15.13445
       H   -13.23837    8.88629   18.37902
       O   -12.73388    8.04415   18.25929
      H1   -13.48786    7.48625   17.90756
       H   -11.83336    9.41052    7.87296
       O   -11.04099    9.10029    8.35783
      H1   -10.65014    8.42155    7.77297
       H    -9.69565   11.17286   15.62214
       O    -9.10357   11.16315   14.86938
      H1    -8.30098   10.66700   15.14259
       H   -16.63071   13.31273   17.99140
       O   -16.14634   14.01572   18.43996
      H1   -15.61609   13.55920   19.09146
       H   -17.80079   17.43405   10.11356
       O   -17.39418   16.75436    9.60365
      H1   -16.47989   16.93508    9.43445
       H   -19.37849    7.74231   18.59550
       O   -19.04882    7.72162   19.56996
      H1   -19.92808    7.72282   19.92793
       H   -10.53504    6.64289    9.87045
       O   -11.44610    7.06021    9.91376
      H1   -11.37716    7.95793    9.43960
       H   -17.86960    9.38972    9.87702
       O   -17.29270    9.21175   10.60973
      H1   -16.78815   10.00052   10.56299
       H   -18.23819    7.45741    6.15376
       O   -18.73219    6.84510    6.76250
      H1   -18.67003    6.05302    6.26590
       H   -11.75769   15.94647   11.42315
       O   -11.68633   16.27960   12.33580
      H1   -12.60321   16.39415   12.48684
       H   -16.83515    4.61980   13.35401
       O   -17.27697    4.60407   14.22733
      H1   -16.59239    4.71255   14.85628
       H   -12.67662    6.34052    8.42360
       O   -13.48742    5.99015    8.08531
      H1   -13.35072    5.97145    7.14288
       H   -12.87705   11.93332   18.42900
       O   -12.22698   12.67754   18.30659
      H1   -12.68192   13.29372   18.89817
       H   -13.03901   16.41555   16.64103
       O   -12.50820   16.84905   15.98828
      H1   -12.00683   16.07561   15.64613
       H   -11.12640   13.55614   12.36275
       O   -11.80052   13.13496   11.79707
      H1   -11.59857   12.17561   11.85869
       H   -17.98164    7.73312   13.48100
       O   -17.90176    7.34869   14.40404
      H1   -17.58359    6.41672   14.19765
       H   -14.63179   15.12930   10.98536
       O   -14.27100   16.03698   11.01338
      H1   -14.71633   16.39504   11.77513
       H   -19.02119    7.44434   15.95088
       O   -19.27524    7.68419   16.85098
      H1   -18.66563    8.41741   16.82528
       H   -13.30651   11.38489    7.03757
       O   -13.88687   10.57699    6.94719
      H1   -14.17310   10.72640    6.01227
       H   -14.38094    5.08756   12.26129
       O   -14.85887    4.31810   12.66995
      H1   -14.58208    4.58341   13.55053
       H   -16.97690    6.37633    7.50782
       O   -16.59187    5.63479    7.98487
      H1   -15.64561    5.75706    7.97650
       H   -16.88029   11.21605   12.78388
       O   -16.89078   11.22610   13.75892
      H1   -17.63871   11.78051   13.96968
       H   -13.97473    5.72075   18.09856
       O   -14.16890    6.01251   17.15392
      H1   -13.29510    5.99278   16.61872
       H   -18.28893   18.25586   12.21084
       O   -18.99226   18.18239   11.54142
      H1   -19.14131   19.09581   11.27931
       H   -17.23607   14.28121   10.68085
       O   -17.53806   13.45937   11.06296
      H1   -18.19779   13.14529   10.38025
       H   -16.15837   12.18723   10.69001
       O   -16.02611   11.41724   10.04765
      H1   -15.12184   11.12078   10.33932
       H    -9.46309   11.24536   18.70506
       O    -9.74730   10.58917   18.07280
      H1   -10.36982   10.10296   18.58484
       H   -17.79440    6.13225   10.57290
       O   -18.68920    6.14533   10.86931
      H1   -18.64984    5.51992   11.62812
       H   -18.63727   14.16814   12.46923
       O   -19.25893   14.49897   13.17633
      H1   -18.57784   14.70273   13.91805
       H   -17.75450   11.91074   16.57388
       O   -17.92200   12.88091   16.44140
      H1   -18.63701   12.96290   17.05915
       H   -19.28644    4.67164    9.12672
       O   -18.94289    3.86965    8.65472
      H1   -19.25983    4.02119    7.73250
       H   -14.89312   13.56995   15.23542
       O   -15.46682   13.63034   14.42452
      H1   -15.90180   12.76451   14.47593
       H   -11.00206    8.96698   11.02278
       O   -11.24464    9.77445   11.45894
      H1   -11.01670    9.66648   12.43936
       H   -12.99002   13.54827    6.63458
       O   -12.27404   13.01333    6.95823
      H1   -12.08966   12.40308    6.17186
       H   -12.99035    9.88624   11.20562
       O   -13.77352   10.14751   10.68935
      H1   -13.56915    9.84304    9.82716
       H   -13.78183   13.04130   11.99333
       O   -14.74055   13.23189   11.91975
      H1   -14.88215   13.40816   12.87129
       H   -19.31631    7.57729   11.97782
       O   -19.32734    8.45148   12.39668
      H1   -18.81671    8.97681   11.75760
       H   -17.04702    9.78623   16.85703
       O   -17.92356    9.99828   17.17017
      H1   -17.80880    9.79097   18.09691
       H   -17.67551   12.46306    4.63529
       O   -17.53861   11.54529    4.88497
      H1   -17.45518   11.58861    5.82689

