180
frame 7 | Written by MDAnalysis XYZWriter (release 2.4.3)
       H   -14.65709    0.68186   -9.69860
       O   -14.66923    1.59715   -9.60587
      H1   -14.43137    1.95728  -10.47147
       H    -5.42424   -7.37127  -10.88090
       O    -6.33486   -7.14661  -10.52513
      H1    -6.13341   -6.62845   -9.68283
       H    -1.75220   -2.86230  -12.92561
       O    -2.24426   -2.26472  -13.49560
      H1    -2.01462   -1.37129  -13.11431
       H    -8.50772   -0.09760  -17.75934
       O    -8.89279    0.16974  -16.92038
      H1    -9.12902   -0.74122  -16.60547
       H    -7.39518    1.90022   -7.87109
       O    -7.30855    1.18862   -7.20333
      H1    -8.17745    0.83061   -7.05280
       H   -10.00339   -3.84962   -5.30329
       O   -10.92039   -3.67364   -5.40440
      H1   -11.34798   -4.52642   -5.59303
       H    -7.04777   -1.17049   -9.58797
       O    -7.85864   -0.82925   -9.17112
      H1    -7.53884   -0.22699   -8.48297
       H   -12.86626   -1.47726  -16.07857
       O   -13.08989   -0.52647  -16.05982
      H1   -13.77218   -0.51331  -15.41221
       H    -5.30374    1.21163  -14.86194
       O    -6.23494    0.83794  -14.80836
      H1    -6.61413    0.93237  -15.69345
       H    -9.26941   -6.33196   -9.32918
       O    -9.59005   -5.40338   -9.21679
      H1   -10.40448   -5.51855   -9.70931
       H    -5.99235   -2.29191  -13.54368
       O    -6.59631   -1.74921  -14.06136
      H1    -6.29879   -0.84321  -13.90603
       H   -12.75365   -2.96993   -9.33462
       O   -12.42173   -2.32225   -9.93962
      H1   -11.78007   -1.88907   -9.36695
       H    -7.10772   -7.73767  -14.83854
       O    -6.99314   -8.57709  -15.24688
      H1    -6.11837   -8.40170  -15.62080
       H    -5.01567   -1.99998  -15.37017
       O    -4.52684   -2.32155  -16.11430
      H1    -5.20518   -2.38829  -16.78377
       H   -10.38203   -6.29223  -14.24367
       O   -10.70454   -7.10296  -13.86032
      H1   -11.25117   -7.40931  -14.57577
       H   -12.02000   -6.90820  -11.18057
       O   -11.66507   -6.02679  -10.86216
      H1   -12.36956   -5.66867  -10.37585
       H    -9.61658   -4.98847  -12.54087
       O    -9.18256   -4.48222  -11.83309
      H1    -9.49003   -4.93628  -10.97218
       H   -10.51232   -6.12210   -7.50649
       O   -11.20404   -6.44214   -6.85179
      H1   -10.88031   -7.30975   -6.64920
       H    -7.34501   -4.71040  -12.20457
       O    -6.49691   -5.01237  -12.50690
      H1    -6.34760   -5.69268  -11.83818
       H   -12.09613   -3.72128  -11.95142
       O   -12.46661   -3.85373  -12.82684
      H1   -12.38339   -4.82090  -12.78577
       H    -2.15605   -4.51311  -10.55901
       O    -2.58238   -4.86770   -9.78175
      H1    -3.41620   -4.39600   -9.69942
       H    -8.15963    0.03472  -10.50020
       O    -8.63648    0.41362  -11.25262
      H1    -8.85848   -0.38333  -11.73435
       H    -9.19559   -2.83641  -12.06998
       O    -9.12038   -1.98297  -12.54387
      H1    -8.16421   -1.90199  -12.61162
       H    -9.81010   -8.81364  -13.17164
       O    -9.38862   -9.36771  -12.54196
      H1    -9.91750  -10.17392  -12.55666
       H   -15.56382   -2.23215  -10.66092
       O   -16.30956   -2.74745  -10.83710
      H1   -16.45061   -3.16733   -9.98459
       H    -8.48694    4.11507  -13.09904
       O    -7.94228    4.90327  -12.93859
      H1    -8.69619    5.58655  -13.05406
       H   -11.68335    0.28062  -12.47904
       O   -12.47330    0.35477  -11.94187
      H1   -12.27807    1.10664  -11.39810
       H    -9.55547   -3.97891  -14.64772
       O    -9.51261   -4.94204  -14.75239
      H1    -9.05424   -4.96747  -15.60404
       H    -2.72045   -6.97649  -14.40684
       O    -3.19459   -6.48638  -13.78697
      H1    -4.07340   -6.55612  -14.11065
       H   -14.50241   -0.30063  -11.44809
       O   -14.71061   -0.80400  -10.63770
      H1   -13.87162   -1.27472  -10.43596
       H    -2.91341   -4.93390  -15.31320
       O    -3.32607   -4.82456  -16.17645
      H1    -3.53532   -3.88947  -16.33771
       H    -9.66336   -0.06129   -5.31989
       O    -9.63369    0.08604   -6.29262
      H1   -10.15682    0.93205   -6.33310
       H    -8.11467   -2.73023   -8.34905
       O    -8.11377   -3.43150   -7.71402
      H1    -8.80028   -4.08643   -7.91952
       H   -11.80802   -2.15054   -6.61387
       O   -11.74871   -1.33837   -7.07675
      H1   -10.87976   -0.97415   -6.70623
       H    -5.18170   -2.04448  -11.04968
       O    -5.41486   -1.59263  -10.23787
      H1    -4.76935   -0.86065  -10.37769
       H    -8.28936    1.87515  -12.76753
       O    -8.62855    2.14278  -13.68704
      H1    -8.06215    1.68098  -14.33741
       H   -12.03954    0.70681  -16.89532
       O   -11.30565    1.24808  -17.16312
      H1   -10.53117    0.67468  -17.08033
       H   -10.31597    2.18982   -9.07917
       O    -9.56673    2.26439   -9.69922
      H1    -9.63351    1.42862  -10.21201
       H   -14.42226   -2.85957  -13.69426
       O   -15.20028   -3.41134  -13.91692
      H1   -14.81127   -4.25680  -14.06611
       H    -6.79419   -4.69922   -8.58242
       O    -5.97880   -5.23728   -8.66500
      H1    -5.38121   -4.63414   -8.20968
       H    -9.60432   -3.40043  -16.86977
       O    -9.76643   -3.85718  -17.70880
      H1    -9.14394   -4.58387  -17.79476
       H    -9.98102   -0.65409  -13.68352
       O   -10.46272    0.05598  -14.06840
      H1    -9.74296    0.74749  -14.08741
       H    -8.53302   -8.89570   -9.13892
       O    -8.29033   -7.95750   -8.83946
      H1    -7.56420   -7.85008   -9.44864
       H   -10.81947    2.62348   -6.55370
       O   -11.13585    1.99286   -7.22212
      H1   -12.05158    2.08868   -7.35805
       H    -6.99577    3.83202   -9.45561
       O    -6.88335    2.85959   -9.24820
      H1    -7.81044    2.63502   -9.47169
       H   -12.31965   -3.47637  -14.63510
       O   -12.29681   -2.91938  -15.47524
      H1   -12.68766   -3.45271  -16.18710
       H   -13.87462   -0.15375  -13.14193
       O   -14.66043   -0.23888  -13.67795
      H1   -15.28475    0.51268  -13.51715
       H   -10.27200   -1.58767  -15.36409
       O    -9.45579   -2.05474  -15.53542
      H1    -8.77471   -1.71730  -14.90781
       H    -8.48494   -2.91875   -4.50333
       O    -8.23979   -3.65613   -5.01037
      H1    -8.22806   -3.35431   -5.91652
       H    -3.75674   -2.95500  -12.98484
       O    -4.65468   -3.01798  -12.57068
      H1    -4.97137   -3.88288  -12.70236
       H   -12.73322   -5.32116  -17.23299
       O   -13.53382   -4.99011  -16.88814
      H1   -13.83621   -5.42054  -16.09122
       H    -4.80331   -2.12512   -8.44795
       O    -4.37809   -2.85271   -7.97766
      H1    -3.54059   -2.46868   -7.83357
       H   -14.66385   -4.89426   -9.92819
       O   -14.15508   -4.57239   -9.20659
      H1   -14.13372   -5.40296   -8.72484
       H    -6.43417   -3.63521  -18.12867
       O    -5.83364   -3.00993  -18.51273
      H1    -5.02953   -3.46590  -18.75814
       H   -13.72488    1.50945  -14.05724
       O   -13.14248    2.01470  -14.63999
      H1   -12.74840    1.29997  -15.12102
       H    -5.35563    1.80817  -11.94869
       O    -5.29259    1.39467  -11.11180
      H1    -5.89246    1.93606  -10.59240
       H   -15.55160   -6.26106  -11.86736
       O   -14.97328   -5.53149  -11.68098
      H1   -15.52870   -4.75478  -11.72027
       H    -5.28381   -3.24307   -6.20239
       O    -5.41832   -3.56594   -5.29560
      H1    -6.36177   -3.43494   -5.16983
       H    -6.94559   -5.76435  -16.49515
       O    -7.65500   -5.56803  -17.05144
      H1    -7.77427   -6.48953  -17.28263
       H    -4.78107   -5.60199  -15.45397
       O    -5.64229   -6.06472  -15.18813
      H1    -5.95675   -5.43825  -14.48434

