180
frame 7 | Written by MDAnalysis XYZWriter (release 2.4.3)
       H    10.98675   -7.16666    1.72806
       O    11.24593   -6.77358    2.56861
      H1    10.58848   -6.06194    2.67401
       H    12.62746   -9.31064   -6.64083
       O    13.58134   -9.39994   -6.73945
      H1    13.93830   -8.83973   -5.98772
       H    16.14895   -4.96029   -4.28345
       O    16.55508   -4.63314   -3.43360
      H1    16.61923   -5.46744   -2.91275
       H    13.00949  -11.37119   -6.93970
       O    12.85732  -12.31664   -6.99292
      H1    13.22223  -12.73237   -6.19553
       H    11.88249   -5.30874   -3.90526
       O    11.90689   -5.29324   -4.86942
      H1    11.30662   -6.05405   -5.04463
       H    18.47866  -10.85778   -2.58474
       O    17.80257  -11.19195   -3.19977
      H1    17.39502  -10.33332   -3.52298
       H    15.39407   -0.84800    4.39921
       O    15.30865   -1.79832    4.65434
      H1    15.47109   -2.18270    3.80933
       H    13.00321  -10.70677   -1.56301
       O    12.22983  -10.87711   -2.16299
      H1    11.49151  -10.89113   -1.46727
       H    12.17016   -6.24811   -1.77174
       O    12.48980   -5.40771   -2.04806
      H1    13.48653   -5.50676   -1.83307
       H    14.24569   -7.26111   -4.36194
       O    13.87694   -8.08096   -4.09692
      H1    13.80916   -7.89548   -3.13755
       H    16.53086    0.97072   -2.45715
       O    16.40628    0.06625   -2.71686
      H1    16.22104    0.00656   -3.64614
       H    15.00779   -5.65601   -6.56326
       O    15.12861   -5.59571   -5.59830
      H1    14.15770   -5.45397   -5.44261
       H    10.94026   -8.04103   -1.34170
       O    11.19625   -8.04465   -2.31183
      H1    11.54236   -8.94242   -2.42936
       H    11.55380   -4.50831   -1.02924
       O    10.79372   -4.26756   -0.47381
      H1    11.07697   -3.44616   -0.10397
       H    18.43030  -12.88436   -5.07682
       O    19.37423  -12.74288   -5.34850
      H1    19.57861  -13.58433   -5.74854
       H    14.27886   -3.68936    1.63267
       O    14.99293   -3.03551    1.51432
      H1    14.66684   -2.59810    0.70534
       H    19.10376   -3.71372   -5.24624
       O    18.19047   -3.99789   -5.46448
      H1    17.88072   -4.12071   -4.55089
       H    19.67580   -3.38403   -1.56827
       O    19.69872   -2.45730   -1.22329
      H1    19.42550   -1.89791   -1.96333
       H    12.31621   -2.72870    4.75634
       O    12.04974   -2.73638    3.82205
      H1    12.57920   -3.53574    3.49841
       H    17.17872   -6.85336   -1.09662
       O    17.19125   -7.05206   -2.04361
      H1    18.04585   -7.58483   -2.06595
       H    19.73156   -9.04403    1.50549
       O    19.08518   -8.78540    0.73534
      H1    18.95065   -7.82152    0.89652
       H    13.65255   -1.80298   -1.17558
       O    14.60473   -1.70642   -0.90317
      H1    14.99664   -1.03954   -1.49238
       H    18.05564   -9.49712   -7.32880
       O    17.54636   -8.68021   -7.35718
      H1    17.09092   -8.76858   -6.50241
       H    16.51390   -3.36978    1.31797
       O    17.46484   -3.75400    1.21030
      H1    17.99176   -3.01534    0.85534
       H    17.30937  -14.39451   -4.03014
       O    16.82674  -13.55473   -4.17218
      H1    16.99129  -13.01299   -3.38335
       H    17.35149    1.20697   -5.34300
       O    17.45329    0.24903   -5.26829
      H1    16.63070   -0.12241   -5.63486
       H    18.59258   -5.48802    0.96385
       O    19.37560   -6.08851    0.88781
      H1    20.04798   -5.51002    1.27380
       H    17.82970   -6.53684    3.70430
       O    18.77702   -6.46045    4.04874
      H1    19.23132   -6.06984    3.30390
       H    15.58539   -8.04440   -1.60807
       O    14.62963   -7.89926   -1.48798
      H1    14.44574   -8.67911   -1.00940
       H    16.05409   -3.67963   -8.78102
       O    15.66171   -3.94311   -9.64046
      H1    16.46621   -4.50765   -9.86410
       H    13.89290  -13.66069   -4.38819
       O    13.22207  -13.64807   -3.64834
      H1    13.25521  -12.83453   -3.12276
       H    10.34185   -9.75775    2.11009
       O    11.13667  -10.09051    1.68966
      H1    10.68028  -10.50278    0.95642
       H    14.84331   -6.67722   -9.06361
       O    14.79435   -6.01935   -8.33470
      H1    15.22696   -5.25780   -8.73257
       H    18.40120   -5.26184   -9.50127
       O    17.86815   -5.50468  -10.25843
      H1    18.39077   -5.10851  -11.00943
       H    16.40094  -12.22978   -7.10834
       O    16.32576  -11.31917   -6.78669
      H1    15.74024  -10.87091   -7.44526
       H    15.24102   -7.78372    2.98032
       O    15.43476   -6.86478    3.14324
      H1    15.84917   -6.57111    2.28949
       H    16.42476   -9.30965   -8.82080
       O    16.38307   -9.84161   -9.66891
      H1    16.83708   -9.26926  -10.31730
       H    18.09043   -2.57134    2.61954
       O    18.43958   -2.03353    3.34183
      H1    18.92093   -1.35197    2.83902
       H    15.61386   -3.69432   -6.28550
       O    16.03865   -3.10791   -6.95828
      H1    16.96964   -3.11218   -6.58912
       H    12.42777   -7.71195    5.51629
       O    12.24199   -8.28204    4.72471
      H1    11.89323   -7.56893    4.14666
       H    20.22310  -10.13775   -1.60248
       O    19.61497  -10.78812   -1.30206
      H1    18.96288  -10.16673   -0.88739
       H     9.25468   -7.08012   -4.78459
       O    10.08355   -7.58219   -4.66891
      H1    10.36080   -7.45614   -3.68488
       H    12.24742   -0.84283   -2.73008
       O    12.02950   -1.81470   -2.76792
      H1    12.72848   -2.06312   -3.39233
       H    15.97753  -15.10267   -1.21986
       O    15.57333  -15.38051   -0.40294
      H1    14.60015  -15.49659   -0.73352
       H    13.91109   -2.38985   -5.11934
       O    13.53916   -3.05445   -4.51160
      H1    13.09151   -3.58023   -5.21272
       H    12.22201   -4.67463   -6.78432
       O    13.02669   -4.30467   -7.13656
      H1    13.34091   -5.05233   -7.67998
       H    18.05713   -5.22191   -6.79107
       O    18.42371   -5.64397   -7.58172
      H1    17.93069   -6.50804   -7.54182
       H    15.47843   -4.44560   -2.16623
       O    15.02769   -4.75995   -1.31475
      H1    14.75537   -3.87110   -0.98768
       H    14.70717  -15.28811   -5.63896
       O    14.65019  -14.35423   -5.78444
      H1    15.52427  -14.08480   -5.46161
       H    15.17839   -1.44632   -6.46555
       O    15.01758   -0.91293   -5.65335
      H1    14.35300   -0.31256   -6.00931
       H    15.67071   -6.48273   -0.06482
       O    16.38395   -6.30026    0.57116
      H1    16.66463   -5.37674    0.35388
       H    16.34671   -9.98557   -5.19818
       O    16.63241   -9.18059   -4.76551
      H1    15.79670   -8.83516   -4.34629
       H    18.02807   -0.41135   -2.67459
       O    18.94657   -0.54630   -2.88042
      H1    18.79317   -0.58677   -3.87302
       H    10.49449   -6.22156   -0.02383
       O    10.47341   -7.22696    0.05756
      H1     9.53533   -7.46793   -0.12420
       H    19.83628   -7.53355   -5.72334
       O    19.70727   -8.14334   -5.00744
      H1    18.79956   -8.35149   -5.13207
       H    13.59273   -9.77657    0.70148
       O    14.09136  -10.00925   -0.07878
      H1    14.91367  -10.27279    0.33249
       H    13.30571   -8.86176    3.39967
       O    14.11629   -9.27381    2.98792
      H1    14.17039  -10.04802    3.48873
       H    13.96138   -5.59261    3.02031
       O    13.25653   -5.03366    2.64135
      H1    12.65271   -5.78399    2.49777
       H    17.10264  -11.25509    0.78598
       O    16.68204  -10.36478    0.64962
      H1    17.37470   -9.76983    0.82828
       H    15.54011   -6.67183    4.94144
       O    15.37180   -6.88221    5.87476
      H1    14.44693   -6.72426    5.95280

