180
frame 3 | Written by MDAnalysis XYZWriter (release 2.4.3)
       H     8.17480  -16.11335    4.57209
       O     8.03525  -15.54547    5.31686
      H1     8.79887  -15.01433    5.29260
       H     8.51616   -9.12821   -2.14329
       O     8.15760   -9.16065   -1.22138
      H1     7.20610   -9.35440   -1.26785
       H    12.26421   -7.57239    2.72786
       O    12.73738   -7.98237    3.48707
      H1    13.49249   -8.35151    3.07993
       H     7.97257  -12.97467    3.25119
       O     8.95392  -12.88247    3.15597
      H1     9.06262  -11.87802    3.22236
       H     6.57788   -4.10587    2.45212
       O     5.84858   -3.96624    1.82512
      H1     6.18847   -3.38532    1.12827
       H     9.15860   -8.68201    9.73880
       O     9.57333   -7.89375    9.34662
      H1    10.18378   -7.64832   10.10363
       H     9.65153  -16.58608    7.74223
       O     8.72828  -16.56066    7.64937
      H1     8.53013  -16.34485    6.69832
       H    11.92919  -13.70249    1.22455
       O    12.86274  -13.53613    1.47708
      H1    12.72607  -12.85740    2.14892
       H     4.22990  -11.76688    7.53130
       O     4.52513  -11.97867    8.43432
      H1     4.33953  -11.08552    8.79929
       H     9.09381   -9.81866    4.27731
       O     8.65068  -10.17889    3.51658
      H1     7.70289  -10.12784    3.78772
       H    12.74204  -12.23308    0.05270
       O    12.39493  -11.40876   -0.20298
      H1    11.49961  -11.63732   -0.44251
       H     7.01571  -10.23890    7.39336
       O     6.10643  -10.37037    6.92011
      H1     6.44997  -10.94201    6.21260
       H    11.62881   -7.23335   -0.36789
       O    12.02101   -7.47752   -1.19959
      H1    12.87390   -7.82751   -0.87212
       H    10.45271  -10.24831    9.68562
       O    11.04768  -10.51987    8.91272
      H1    10.36293  -10.76339    8.26634
       H     4.79837   -9.34745    6.12236
       O     4.02677   -8.91789    5.78968
      H1     3.36389   -9.55541    5.60789
       H     8.53847   -4.96657    3.59983
       O     7.56866   -5.06039    3.70136
      H1     7.73679   -5.75142    4.36582
       H    13.69064   -5.57699    4.47005
       O    13.08242   -5.99610    5.09854
      H1    12.63811   -6.55782    4.44385
       H    10.72043  -17.18742    0.25762
       O    10.22402  -16.82426    1.06961
      H1    10.07543  -15.88983    0.83208
       H     6.14566   -7.69996    9.04489
       O     5.97094   -8.49125    9.58945
      H1     5.21687   -8.19117   10.11769
       H     6.62293   -2.76040    5.77573
       O     7.49189   -2.68509    5.26448
      H1     7.55509   -3.58152    4.84185
       H     9.90252   -6.99296   -1.15041
       O     9.48929   -6.57952   -0.40145
      H1     8.56317   -6.90412   -0.52076
       H     3.40494   -7.62972    0.33206
       O     3.66579   -8.34014    0.96562
      H1     3.99146   -7.80861    1.68241
       H    12.28676  -12.03081    8.82946
       O    12.95064  -12.61379    8.41188
      H1    13.54037  -11.93468    7.93418
       H    13.47715  -14.77983    2.51928
       O    13.73437  -15.66007    2.92877
      H1    12.85706  -16.03863    3.17737
       H     6.56505   -6.65567    0.74964
       O     6.39137   -6.15833   -0.08577
      H1     6.01244   -5.32577    0.20564
       H    14.73963   -8.55038    0.64373
       O    13.80271   -8.68533    0.48451
      H1    13.56540   -9.55331    0.87638
       H     2.77515   -9.83885    1.55458
       O     2.54920  -10.60396    2.12885
      H1     3.31551  -10.72923    2.68882
       H    13.71338  -12.37988   -3.02431
       O    12.94262  -11.81151   -2.79501
      H1    13.06202  -11.62082   -1.82049
       H    10.00037   -7.92115    5.65622
       O     9.78905   -8.88098    5.72953
      H1    10.73341   -9.10782    5.88870
       H    12.28684  -10.14014    2.86254
       O    12.67083  -11.00597    2.60455
      H1    12.38898  -11.00333    1.64135
       H     5.84393   -6.12073   -3.02526
       O     5.20371   -6.53700   -2.37167
      H1     5.68532   -6.36830   -1.54679
       H     7.30718  -13.02801    6.48661
       O     7.83399  -12.32675    6.03603
      H1     8.11131  -12.68083    5.17041
       H     5.26525  -15.59112    1.60518
       O     5.40123  -15.88431    2.52292
      H1     4.58882  -16.25419    2.82953
       H     5.92729  -11.66644    3.28563
       O     5.38077  -10.91851    3.42756
      H1     5.43096  -10.53774    2.50691
       H    12.23379   -9.37773    7.17384
       O    12.50673   -9.34639    6.24218
      H1    12.97548   -8.49728    6.26985
       H     8.45497  -11.28653    7.11943
       O     8.64473  -10.52612    7.72463
      H1     8.85156   -9.79025    7.12904
       H     6.09792  -13.98796    4.43556
       O     6.52390  -13.63439    3.62839
      H1     6.47619  -14.38779    3.02918
       H     9.90984  -10.08069   -3.19712
       O     9.40700   -9.30274   -3.49334
      H1     8.59483   -9.69656   -3.78000
       H     7.34056   -5.74228    8.63202
       O     7.55137   -6.59802    8.25379
      H1     8.33402   -7.00192    8.64363
       H    10.06358  -14.18731   -2.10009
       O     9.23875  -13.99120   -1.68403
      H1     8.65115  -14.68998   -1.90733
       H    11.03466  -15.05014    4.53007
       O    10.76701  -14.41710    5.25174
      H1    10.91687  -13.52365    4.95131
       H     6.53058  -16.97946    3.19006
       O     7.47348  -17.40215    3.35448
      H1     7.50386  -17.82235    2.47380
       H     4.45235   -6.33467    3.63004
       O     4.75522   -7.23179    3.45386
      H1     4.56525   -7.83195    4.18702
       H     3.90109  -15.57714    7.35978
       O     3.98997  -14.81389    6.75274
      H1     4.98406  -14.85474    6.63239
       H    10.74743  -16.78408    2.73512
       O    11.10535  -16.78904    3.65205
      H1    11.47392  -17.69527    3.66088
       H    12.28063   -6.97694    8.36184
       O    12.40979   -7.89476    8.63376
      H1    11.50257   -8.17991    8.69762
       H     9.44987  -10.85619   -1.26321
       O    10.02343  -11.53284   -1.60618
      H1     9.40857  -12.27468   -1.84018
       H    13.11092  -14.07383    7.04242
       O    13.23981  -14.81259    6.47219
      H1    12.38322  -14.94543    6.07186
       H     6.50733   -9.38402    1.01051
       O     6.18482  -10.23714    0.68022
      H1     5.40534   -9.91063    0.26041
       H     9.41366  -13.61907    1.63738
       O    10.07010  -13.99730    0.99045
      H1     9.57598  -13.90985    0.13347
       H    11.13484   -5.43142    1.37261
       O    11.24367   -6.43056    1.51242
      H1    10.43134   -6.73353    1.08807
       H    11.00625   -4.36952    7.90207
       O    11.49918   -5.19340    7.75990
      H1    11.69485   -5.12681    6.81152
       H    14.44338  -10.30264    3.10754
       O    15.11310   -9.58982    3.18842
      H1    15.93075   -9.96076    2.79555
       H     6.36829   -7.50332    2.50180
       O     7.21737   -7.53505    2.04399
      H1     7.69041   -6.88874    2.52811
       H     8.56635   -6.05532    6.96498
       O     8.91663   -6.02019    6.01286
      H1     9.82356   -5.70098    6.16727
       H     6.94733  -14.70228    8.04788
       O     6.40669  -14.08470    7.51833
      H1     5.87488  -13.61486    8.17374
       H    14.93273   -5.36047    2.57037
       O    14.09803   -4.80925    2.50335
      H1    13.43071   -5.43979    2.20908
       H    15.31745  -10.73939    7.52899
       O    14.41991  -10.52878    7.67220
      H1    14.01758  -10.23288    6.82560
       H    10.77078   -4.86119    3.12163
       O    10.11467   -4.48956    3.74912
      H1    10.70638   -3.79602    4.07937
       H     3.42351   -9.67822    9.82965
       O     3.49005   -9.52081    8.85623
      H1     4.40940   -9.33648    8.72188

