180
frame 0 | Written by MDAnalysis XYZWriter (release 2.4.3)
       H   -13.04494  -18.16725   -5.87108
       O   -13.61393  -17.33741   -5.74030
      H1   -13.21910  -17.16338   -4.89035
       H   -18.46912   -7.61891   -3.33213
       O   -17.98784   -6.94984   -2.75781
      H1   -17.26581   -7.48230   -2.42258
       H   -14.57173   -4.06580   -2.83909
       O   -15.21549   -3.36769   -2.54173
      H1   -15.51393   -3.72821   -1.70672
       H   -12.43099   -8.68346   -2.75631
       O   -12.45553   -9.52972   -3.19713
      H1   -11.52603   -9.81482   -3.10544
       H   -17.82648   -6.33769   -0.50741
       O   -17.76725   -5.64787    0.14669
      H1   -17.35155   -6.13966    0.90143
       H   -14.56457  -12.45761   -8.81447
       O   -14.80896  -12.74914   -7.88156
      H1   -14.63056  -13.67203   -7.91741
       H   -19.66657  -12.91352   -1.03753
       O   -18.91574  -13.44661   -1.26770
      H1   -19.17490  -13.76810   -2.18088
       H    -8.52325  -11.70047   -2.81101
       O    -7.72796  -12.08563   -2.43922
      H1    -7.56650  -11.36286   -1.80252
       H   -12.73065  -12.44941   -9.13823
       O   -12.67803  -13.09493   -9.87179
      H1   -12.08657  -13.74059   -9.53131
       H   -11.14443  -13.68551   -2.73861
       O   -11.38967  -13.80439   -3.66772
      H1   -10.75253  -14.55751   -3.86885
       H   -13.49489   -4.55323    0.09480
       O   -12.70102   -5.10970   -0.12558
      H1   -12.40398   -5.38878    0.71054
       H   -18.90412  -11.55956   -7.02608
       O   -18.56248  -11.82227   -6.10128
      H1   -17.98780  -12.58452   -6.39345
       H   -16.32152   -6.91766   -8.50456
       O   -16.62180   -7.37900   -9.31427
      H1   -16.24326   -8.23951   -9.04867
       H   -16.20341  -11.45389   -0.74805
       O   -16.48243  -12.29991   -0.42083
      H1   -17.25901  -12.46732   -0.99608
       H   -18.61659   -9.26934   -4.41073
       O   -19.35711   -8.74524   -4.04506
      H1   -20.00960   -8.78500   -4.78400
       H   -13.07155  -10.42508   -1.08775
       O   -13.32684  -10.72887   -0.20441
      H1   -13.23429  -11.68771   -0.26928
       H    -9.83626   -9.09971   -7.95752
       O   -10.00286   -9.92075   -7.51694
      H1    -9.43425  -10.54184   -7.90472
       H   -16.17919   -5.30789   -6.76249
       O   -16.61978   -6.09681   -7.00711
      H1   -17.49242   -6.00993   -6.50436
       H   -12.45467   -6.85523   -5.23254
       O   -12.03237   -7.71356   -5.31383
      H1   -12.43997   -8.30801   -4.69750
       H   -18.14711   -8.51616    3.58885
       O   -18.25928   -7.91025    4.36923
      H1   -19.19564   -7.64516    4.41209
       H   -17.26023   -7.00587    3.15934
       O   -16.77184   -6.64090    2.42739
      H1   -15.90589   -7.02222    2.61137
       H   -16.12795   -4.85541    0.22245
       O   -15.42126   -4.22087    0.07573
      H1   -15.73033   -3.45043    0.53737
       H   -15.44037  -10.32834   -9.62780
       O   -15.68871   -9.74338   -8.90177
      H1   -14.87234   -9.32368   -8.67760
       H   -12.77593  -10.54816   -7.42916
       O   -12.44502  -10.55087   -8.33720
      H1   -11.52548  -10.43745   -8.19305
       H   -18.64642  -15.34372   -5.67220
       O   -17.68770  -14.99165   -5.63133
      H1   -17.17286  -15.80883   -5.50264
       H   -13.76311  -14.09179    0.04944
       O   -14.06303  -13.33853   -0.47546
      H1   -14.95513  -12.99698   -0.23840
       H    -8.84610   -9.79403   -2.06901
       O    -9.66605   -9.80067   -2.55102
      H1    -9.39259   -9.78906   -3.50108
       H   -10.36475  -12.52659   -5.07681
       O   -10.15637  -12.36682   -6.00323
      H1   -10.95152  -11.96139   -6.33179
       H   -19.64951   -9.21518   -7.57901
       O   -18.91783   -9.14794   -8.17585
      H1   -19.01150   -8.25906   -8.65519
       H   -17.27904  -14.55959   -7.91109
       O   -17.36890  -13.70736   -8.30399
      H1   -16.62916  -13.12312   -8.02195
       H   -17.71060  -17.60905   -2.40203
       O   -18.23922  -17.88169   -3.15586
      H1   -18.25241  -18.84637   -2.99842
       H   -17.52864  -10.30022    2.11918
       O   -16.79566  -10.37224    1.52235
      H1   -16.77169  -11.32934    1.29515
       H   -10.47019   -8.22962   -5.14487
       O    -9.55908   -8.58698   -5.18984
      H1    -9.60820   -9.26445   -5.92542
       H   -10.84655   -6.53466   -2.65087
       O    -9.89240   -6.22436   -2.80356
      H1    -9.36848   -6.80746   -2.21069
       H   -13.60288  -10.05787    1.29477
       O   -14.03189   -9.69405    2.08291
      H1   -15.02804   -9.67205    1.81814
       H   -10.55171  -13.73650   -0.09883
       O   -10.51322  -13.33941   -0.98749
      H1    -9.58105  -13.18587   -1.12998
       H   -15.00910  -14.71264   -3.37590
       O   -14.75866  -15.26752   -2.57635
      H1   -14.45868  -14.55608   -1.99443
       H   -15.93078  -16.26782   -1.76657
       O   -16.51295  -16.91542   -1.33663
      H1   -17.28623  -16.42986   -1.03740
       H   -11.87982   -8.17758   -0.46317
       O   -11.06514   -8.43836   -0.00106
      H1   -10.77585   -9.16314   -0.58478
       H   -15.22793  -17.53794    0.12994
       O   -14.33186  -17.95260    0.01776
      H1   -14.35568  -18.05779   -0.88145
       H   -18.43941   -8.91588   -0.37680
       O   -17.51803   -9.05433   -0.68829
      H1   -17.13427   -9.60760    0.04037
       H   -10.90628   -7.16661    1.38116
       O   -11.24134   -6.30592    1.69435
      H1   -11.92647   -6.56810    2.30309
       H   -19.56349   -4.92572   -5.81938
       O   -19.13570   -5.79573   -5.92370
      H1   -19.09850   -6.06126   -4.98025
       H   -16.27678  -11.32857    4.28925
       O   -15.59008  -10.87613    4.79694
      H1   -14.78008  -11.20427    4.38111
       H   -13.70518   -4.77460   -4.91676
       O   -13.27594   -4.84610   -3.98113
      H1   -12.55894   -4.18332   -3.95922
       H   -13.34598   -8.20599   -7.06738
       O   -13.53772   -8.18938   -8.01446
      H1   -12.95517   -8.93618   -8.24380
       H   -12.98553   -6.62987   -2.84874
       O   -12.84611   -7.09062   -2.01877
      H1   -12.76564   -6.32722   -1.42818
       H   -17.62820  -13.39086    3.58911
       O   -17.13606  -12.62261    3.34111
      H1   -16.38387  -13.04317    2.95777
       H   -12.22660  -12.04223    3.95830
       O   -13.09609  -12.09743    3.54946
      H1   -13.27804  -11.45522    2.85186
       H   -18.77018  -14.98349   -0.34523
       O   -18.64449  -15.93742   -0.12464
      H1   -18.76718  -15.91311    0.82067
       H   -15.65415  -11.57778   -3.32657
       O   -15.38216  -10.82610   -2.77512
      H1   -14.40578  -10.82011   -2.86292
       H   -14.50768  -10.80004   -6.30844
       O   -13.66446  -10.61033   -5.84372
      H1   -14.06020   -9.93117   -5.26135
       H   -17.74876  -10.37613   -5.90005
       O   -17.46859   -9.44681   -5.65407
      H1   -17.76742   -8.97533   -6.43248
       H   -17.52223   -5.02377   -3.78895
       O   -17.42002   -4.07191   -3.86304
      H1   -16.72640   -3.79411   -3.22552
       H   -12.76482  -15.37395    1.91444
       O   -13.42089  -14.61760    1.99273
      H1   -12.88827  -13.89412    2.33153
       H   -13.95475  -16.45050   -7.22756
       O   -14.40177  -15.70976   -7.71725
      H1   -15.00147  -16.18301   -8.27912
       H   -15.15308   -9.13738   -3.57640
       O   -15.03901   -8.45120   -4.25476
      H1   -15.84001   -8.41747   -4.76150
       H   -16.57382  -18.09308   -4.82880
       O   -16.49401  -17.57126   -5.62580
      H1   -15.55561  -17.48571   -5.77105
       H   -12.57876  -15.70455   -3.37724
       O   -12.48369  -16.67982   -3.39830
      H1   -11.54854  -16.85352   -3.41321
       H   -16.29839  -13.46921   -4.90370
       O   -15.51125  -13.17157   -4.41329
      H1   -15.01682  -12.88856   -5.19259

