180
frame 0 | Written by MDAnalysis XYZWriter (release 2.4.3)
       H    -0.63364    2.57496   13.37749
       O    -1.39253    3.07256   13.01404
      H1    -1.48231    2.78437   12.08651
       H    -8.03728    2.42511    7.93920
       O    -7.70985    2.14252    8.81587
      H1    -8.29685    2.67941    9.42338
       H    -4.07670    7.92914   10.38081
       O    -3.27594    8.03196    9.81813
      H1    -3.12199    9.01161    9.81924
       H    -5.44673    4.76368   16.23352
       O    -5.71787    5.12492   17.12295
      H1    -5.08919    5.87839   17.11448
       H    -2.82794    4.86554   18.10749
       O    -2.65998    4.82976   17.13634
      H1    -1.97139    4.11651   17.05285
       H    -9.21557    6.89027   14.24595
       O    -9.27839    7.46160   13.42593
      H1    -8.39264    7.87241   13.44290
       H    -0.25258    3.28256   16.07645
       O    -0.84846    2.97468   16.78529
      H1    -1.33347    2.17413   16.42161
       H    -3.11791    7.41884   18.54011
       O    -2.81237    7.23270   19.42734
      H1    -3.20286    6.33917   19.39099
       H    -2.40860    4.58384    8.75785
       O    -2.99980    4.05380    8.16920
      H1    -3.79485    4.63956    8.11987
       H    -2.80463    0.46336   16.88875
       O    -2.25376   -0.23214   17.29837
      H1    -2.05189    0.21083   18.12839
       H    -5.32870    5.79560    8.13517
       O    -4.62678    6.21747    7.61476
      H1    -4.11777    6.74666    8.19578
       H   -10.26069    4.70283   15.29467
       O   -10.63346    4.73991   14.40590
      H1   -11.25604    5.48434   14.53528
       H    -9.90688    5.04611   18.12713
       O   -10.87646    5.11519   17.90087
      H1   -11.18322    4.32824   18.49287
       H    -9.20207    2.76637   16.85213
       O   -10.03858    2.55691   16.46165
      H1   -10.64305    3.09469   16.96506
       H    -4.31969    2.67400   13.04315
       O    -3.78527    1.86745   13.24332
      H1    -2.86711    2.15624   13.29635
       H    -5.77309    3.90557   10.54706
       O    -5.70599    3.79086    9.58448
      H1    -6.37378    3.22244    9.20199
       H   -10.01533    5.06302    8.25812
       O    -9.83284    5.98131    8.45973
      H1    -9.67572    5.90558    9.40190
       H     0.60441    5.13057   11.30430
       O     1.48856    5.02458   11.73245
      H1     1.52727    4.16658   12.13307
       H    -8.46864    3.22528   13.40509
       O    -7.55648    3.28926   13.10760
      H1    -7.35334    2.30140   13.11778
       H    -5.99855   10.38935   17.38101
       O    -6.20681    9.61500   16.80971
      H1    -6.48976   10.05792   15.95002
       H    -6.24243    7.07972   13.90057
       O    -6.00398    7.64727   14.64340
      H1    -6.69055    7.52130   15.32790
       H    -8.87293   10.29126   17.23600
       O    -8.70221    9.42478   17.63047
      H1    -7.70921    9.39326   17.65570
       H    -0.37441    6.31858   15.90275
       O    -0.41506    6.37992   14.90703
      H1    -1.33477    6.43281   14.58814
       H    -3.07161   -1.80053   17.54586
       O    -3.61463   -2.52963   17.87315
      H1    -3.54435   -3.10984   17.12341
       H   -10.34034    1.86378   12.86921
       O    -9.84642    1.34021   13.50548
      H1    -9.61863    0.55216   13.01024
       H   -10.40044    7.16900   18.79242
       O   -10.27314    7.92888   19.35595
      H1    -9.60892    8.41278   18.76630
       H     0.67555    4.84757   14.35062
       O     0.98870    4.00322   14.70844
      H1     1.94026    4.24734   14.88361
       H    -9.26075    6.91255   11.67109
       O    -8.93010    6.43037   10.90635
      H1    -8.91490    5.51164   11.31633
       H    -6.24722   -2.60617   16.57817
       O    -6.01226   -1.84053   17.05220
      H1    -5.20372   -2.20186   17.50093
       H    -8.57854    3.39592   11.48960
       O    -9.06139    3.74188   10.72692
      H1    -9.98833    3.55231   10.96106
       H    -0.96277    6.99026   18.39952
       O    -0.23902    6.80647   17.83232
      H1     0.25803    6.09863   18.24488
       H    -5.08541    9.82696   11.77536
       O    -5.02866    8.88343   11.81342
      H1    -4.13505    8.71412   12.08551
       H    -5.30478   -2.75511   13.90344
       O    -4.87116   -1.88652   14.12949
      H1    -4.96280   -1.90757   15.09909
       H    -8.51986   -0.42458   15.68847
       O    -9.50492   -0.41152   15.78004
      H1    -9.78485    0.36332   15.26232
       H    -6.14049   -1.22862    8.98410
       O    -6.62683   -0.60379    9.56425
      H1    -7.07798    0.04644    8.96642
       H     1.58066    2.51253   18.86880
       O     0.97395    1.86211   18.49058
      H1     0.22573    2.48343   18.29779
       H    -0.96974   -0.38708   14.62254
       O    -0.47190    0.37599   14.89836
      H1    -0.03973   -0.02292   15.64075
       H    -5.41990    4.50669   14.04922
       O    -5.44835    3.88494   14.81344
      H1    -6.30311    3.53540   14.61209
       H    -5.60776    0.65147   12.43381
       O    -6.36578    1.13617   12.05115
      H1    -6.23603    1.14980   11.09877
       H    -7.77527    5.75669   19.02795
       O    -8.11650    5.27083   18.24535
      H1    -7.35823    5.02190   17.68523
       H    -3.84531    5.60885   13.15909
       O    -4.26188    5.23862   12.37911
      H1    -5.10379    5.73772   12.36105
       H    -3.49497    1.89875   15.04065
       O    -3.33827    2.15261   15.94104
      H1    -3.26901    3.10761   15.83983
       H    -2.86222    5.70767   15.45916
       O    -3.15746    6.26353   14.69781
      H1    -3.87737    6.81265   15.15951
       H    -8.91956    0.12201   17.45437
       O    -8.76530    0.04909   18.41926
      H1    -8.14427   -0.69196   18.53498
       H    -9.04218   -1.54518   11.48370
       O    -8.99926   -0.56045   11.51911
      H1    -8.02289   -0.46924   11.43519
       H    -7.87569    1.58469   18.11333
       O    -7.67928    2.44971   17.87588
      H1    -8.31458    2.84691   18.49802
       H    -2.27997    5.09027   10.88980
       O    -1.46685    5.34885   10.46069
      H1    -1.43624    6.32860   10.59150
       H    -6.36043    7.67597   11.84686
       O    -6.53244    6.73410   12.03789
      H1    -7.36589    6.59803   11.57244
       H   -12.06187    2.43949   11.71435
       O   -11.39421    3.05798   12.07924
      H1   -11.84232    3.53314   12.79926
       H    -2.58733   -0.09703   10.48021
       O    -1.98797   -0.82466   10.78335
      H1    -1.14583   -0.34569   10.60350
       H     0.24599    7.95180   12.59574
       O     0.91493    8.18019   13.24430
      H1     0.50792    7.71936   14.06772
       H    -2.15588   -0.93095   12.58950
       O    -2.38484   -0.95591   13.55633
      H1    -3.24037   -1.46013   13.56476
       H   -10.02708    8.91915   16.12257
       O   -10.91833    9.09099   15.77032
      H1   -11.54137    9.17630   16.56465
       H    -2.36484    9.54762   14.34783
       O    -2.22803    9.58828   15.32047
      H1    -1.31402    9.73759   15.37554
       H    -6.63809    0.91268   15.51679
       O    -6.95158    0.40726   14.78020
      H1    -6.18498   -0.24355   14.69505
       H    -3.17727    8.55162   16.55331
       O    -3.93621    8.08225   17.00539
      H1    -4.75046    8.69452   16.91007
       H     2.54624    1.96100   12.78215
       O     1.66449    2.39348   12.57371
      H1     1.43508    2.82049   13.47053
       H    -3.32094    2.65294    9.26329
       O    -3.39910    1.78355    9.74473
      H1    -4.09999    1.98903   10.36422
       H    -8.56392    6.49673   17.02394
       O    -8.69772    7.14701   16.28566
      H1    -8.68586    7.96882   16.78845
       H   -13.10936    1.54606   17.25599
       O   -12.91865    2.11216   16.44779
      H1   -11.95698    2.11890   16.39017

