180
frame 2 | Written by MDAnalysis XYZWriter (release 2.4.3)
       H     5.01838   -1.36412    7.68723
       O     5.03375   -2.12330    7.09447
      H1     4.75696   -2.72448    7.84158
       H     4.46831  -10.68565   11.60477
       O     3.59308  -10.26534   11.66394
      H1     3.05381  -10.96167   11.27756
       H    11.52225   -7.32141    2.82655
       O    12.26555   -7.73201    3.21410
      H1    12.77089   -7.86534    2.37205
       H     8.82942   -8.40200    8.75739
       O     9.24361   -7.68245    9.26397
      H1     9.09725   -8.13067   10.09334
       H     9.53296   -1.35612   13.57421
       O    10.11437   -1.64322   12.87372
      H1    10.74291   -0.88906   12.82933
       H     5.12318  -11.03018    7.51282
       O     4.54802  -11.46128    8.14323
      H1     3.82721  -10.83690    8.20065
       H     8.94158   -9.79712    3.43594
       O     8.34706   -9.98264    2.65310
      H1     7.70336   -9.28456    2.76077
       H    10.94138   -4.38276   14.69854
       O    11.56699   -3.88212   15.19830
      H1    12.11670   -4.54648   15.68933
       H     6.66436   -9.93625    7.14046
       O     6.21078  -10.42824    6.44937
      H1     6.90092  -11.13498    6.23506
       H    11.57663  -11.37314   10.89691
       O    11.05597  -11.25897   10.11258
      H1    10.29772  -10.75939   10.35638
       H     9.98585   -0.89579    5.82972
       O     9.68066   -0.68232    6.72557
      H1     8.89688   -0.16303    6.51176
       H     4.52568   -9.94610    5.27098
       O     3.71644   -9.62351    4.82545
      H1     3.67217  -10.14561    4.03363
       H     8.30599   -4.56857    3.36161
       O     7.38481   -4.87172    3.43204
      H1     7.50601   -5.30460    4.29619
       H    13.94242   -6.14093    5.03894
       O    12.97099   -6.12573    5.20723
      H1    12.67255   -6.68083    4.45039
       H     5.59046  -11.62628   12.47275
       O     6.23060  -11.59990   11.68059
      H1     5.97757  -12.48216   11.27624
       H     6.09855   -7.55467    8.74645
       O     5.41578   -7.94216    9.31547
      H1     5.34046   -7.31721   10.02122
       H     6.14772   -6.38723   16.64989
       O     6.89206   -6.41873   15.97912
      H1     7.03288   -7.38838   16.07262
       H     6.66851   -2.44029    6.49045
       O     7.49132   -2.72717    6.04634
      H1     7.12935   -3.59209    5.77684
       H    11.06365   -2.29834   10.94529
       O    11.54703   -2.09685   10.14681
      H1    12.44016   -2.17900   10.45379
       H    11.41578   -7.24308   10.85662
       O    11.02693   -7.32295   11.69861
      H1    10.74894   -6.41365   11.80465
       H    12.24305  -12.37750    9.07394
       O    12.84546  -13.10735    8.90438
      H1    13.64548  -12.64180    8.58390
       H    14.66105   -4.44554    7.66686
       O    15.26224   -5.01648    8.22895
      H1    14.73185   -4.97767    9.02853
       H    14.98003   -5.10382   12.62716
       O    15.15337   -4.75852   11.76230
      H1    15.94515   -4.25627   11.91243
       H     9.17370   -8.20463    5.27741
       O     9.73263   -8.98856    5.18174
      H1    10.61361   -8.66162    5.41488
       H     6.90650   -8.31884   11.69616
       O     6.83038   -7.90729   12.59964
      H1     5.82128   -7.79407   12.67031
       H     8.80859  -11.32859   15.15932
       O     8.85080  -12.27393   14.99987
      H1     8.20522  -12.56231   15.66239
       H    14.48177   -1.51224   11.54241
       O    14.16290   -1.80987   10.66955
      H1    14.31878   -2.78072   10.73760
       H    11.92188  -11.04058    4.15527
       O    12.08641  -10.50767    3.34654
      H1    11.75942   -9.65023    3.66967
       H     7.93668  -13.05170    7.15184
       O     8.23725  -12.40181    6.43785
      H1     8.06186  -12.85534    5.64038
       H     5.56480   -8.28153   15.20001
       O     5.76977   -9.06611   15.72738
      H1     5.05702   -9.07476   16.34693
       H    12.14889   -8.76314    7.78758
       O    12.37617   -8.81947    6.86079
      H1    12.88031   -8.03457    6.62204
       H     3.33515   -7.30600   13.26485
       O     4.00683   -7.96558   13.41835
      H1     3.74445   -8.64337   12.80779
       H     8.84462  -10.73384    7.44779
       O     8.66216   -9.77936    7.58045
      H1     9.24108   -9.45512    6.89165
       H     2.74783   -6.36821    8.21600
       O     1.86251   -6.08869    7.92929
      H1     1.55061   -6.89438    7.43364
       H    11.16600   -8.73362   13.04400
       O    11.19023   -9.64995   13.36474
      H1    10.54620   -9.52132   14.05739
       H     8.82658  -12.19703   13.37020
       O     8.67178  -12.12992   12.39701
      H1     7.72226  -11.93905   12.33622
       H     7.01136   -5.31568    8.59366
       O     7.35128   -6.06685    8.06813
      H1     7.97167   -6.41251    8.71101
       H    10.55993   -2.57057    8.71682
       O     9.82642   -2.99662    8.19720
      H1     9.49128   -2.30663    7.55643
       H     6.89592   -5.73964   14.29363
       O     6.72771   -5.18650   13.50500
      H1     6.70535   -5.88354   12.80382
       H    14.66879   -7.39251    9.20244
       O    15.18719   -7.94209    8.64965
      H1    15.41981   -7.33685    7.92648
       H     7.47745   -2.61513    9.08053
       O     7.41696   -3.30042    9.75896
      H1     8.27197   -3.62424    9.89237
       H    12.04891   -6.67180    8.71359
       O    11.93582   -7.53169    9.21064
      H1    10.98399   -7.57585    9.32726
       H     9.98124   -9.53864   11.85829
       O     9.12348   -9.57188   11.40780
      H1     8.73418  -10.42557   11.68164
       H    14.50288  -10.69001   10.63450
       O    14.16104  -10.32984   11.46163
      H1    13.54118   -9.64428   11.22558
       H    13.13332   -9.04157   14.25014
       O    13.98980   -8.71745   14.53033
      H1    13.68996   -7.86315   14.86938
       H     7.25996   -2.26506   14.95685
       O     6.54109   -2.62318   14.46599
      H1     6.84874   -3.49526   14.26368
       H    12.17740   -3.19846    3.49993
       O    11.66251   -2.62371    4.05415
      H1    12.33387   -2.60333    4.81566
       H     7.33851   -9.41442   14.98017
       O     8.23919   -9.21378   14.58701
      H1     8.05464   -8.71533   13.78205
       H    11.51975   -4.20359    7.37284
       O    12.30084   -4.75320    7.62548
      H1    12.51439   -5.25510    6.79821
       H     4.23770  -11.72926   14.47541
       O     5.20841  -11.50772   14.31917
      H1     5.30457  -10.62856   14.75728
       H     6.02845   -7.49758    1.75590
       O     6.93190   -7.60803    2.07683
      H1     7.14785   -6.73307    2.48778
       H     7.74659   -6.22570    6.42816
       O     7.95727   -6.57644    5.53249
      H1     8.92205   -6.40863    5.57265
       H     8.98219   -4.91519   13.03061
       O     9.90573   -4.67746   13.17781
      H1     9.87266   -3.72242   12.98800
       H     6.62939  -14.24428    9.21933
       O     6.22322  -14.03902    8.37840
      H1     5.80203  -13.17701    8.48063
       H     3.38612   -3.61945    9.06564
       O     4.28806   -3.87447    8.85326
      H1     4.75534   -3.35348    9.52537
       H    15.90831  -10.57333    7.53877
       O    15.26611  -10.61084    8.27658
      H1    14.96789   -9.72179    8.25936
       H    10.32864   -5.17033    2.95345
       O    10.16601   -5.34874    3.93351
      H1    10.99345   -4.99597    4.35289
       H     4.38780   -5.24905   11.02845
       O     5.11643   -5.64447   11.49338
      H1     4.90690   -5.25384   12.35639
       H    14.39741   -2.51938    6.19543
       O    13.78176   -3.25916    6.03676
      H1    13.50511   -3.43726    6.92097
       H     2.16436   -8.52356    9.75298
       O     2.69409   -8.56654    8.94908
      H1     3.57153   -8.34061    9.21749

