180
frame 0 | Written by MDAnalysis XYZWriter (release 2.4.3)
       H    15.89665   -0.16230   10.42475
       O    16.71672    0.07538    9.97518
      H1    17.35349   -0.61666   10.08497
       H     6.97636    3.88060   17.11847
       O     6.33991    4.56359   16.85638
      H1     5.87374    4.76205   17.71094
       H     9.91345    3.05772   20.00470
       O     9.41113    3.45708   19.27350
      H1    10.13109    3.75419   18.66670
       H    15.25770   10.04166   18.00046
       O    15.56407   10.50379   18.84027
      H1    16.43673   10.81736   18.46969
       H    14.24443    1.73227   13.02263
       O    14.66819    0.89504   13.34584
      H1    15.47938    1.14342   13.84292
       H    15.74343    3.03551    8.84827
       O    16.36888    2.76927    9.59758
      H1    16.55555    1.80369    9.45045
       H     7.14634    2.50770   15.46593
       O     7.92303    2.86439   15.00543
      H1     7.66372    3.00839   14.06936
       H    12.94611    2.40289   10.60675
       O    12.01614    2.11985   10.49804
      H1    11.98609    1.21323   10.88581
       H    14.80058    6.74736   11.78603
       O    15.00750    6.28987   10.91197
      H1    14.65584    5.38051   11.20436
       H     8.96221   -0.00207   12.33278
       O     9.05369   -0.99193   12.39691
      H1     8.98189   -1.22440   13.34036
       H    13.48194    2.28387   16.90866
       O    12.87469    2.49025   16.16582
      H1    12.39580    3.23767   16.57725
       H    11.36184   -2.00793   16.19162
       O    10.59756   -2.01609   16.80832
      H1    10.57331   -2.95882   17.02608
       H    11.91091   -4.81068   13.90498
       O    12.55315   -4.72527   14.59216
      H1    11.97006   -4.60325   15.39381
       H    11.65852    8.87606   13.95230
       O    10.88439    8.36208   13.89562
      H1    11.15861    7.42258   14.00763
       H    17.59528    6.07476   12.87681
       O    17.74293    6.30855   13.78609
      H1    17.55473    5.45388   14.20740
       H    15.23546   -6.74670   19.33241
       O    14.88719   -5.95134   18.87304
      H1    15.30369   -5.86386   18.07296
       H     9.12267   -1.29248   19.57848
       O     8.87352   -1.25746   18.65215
      H1     9.69696   -1.49317   18.17426
       H    15.47044    3.36490   18.05098
       O    15.81376    4.27961   18.05066
      H1    15.01961    4.69584   17.52978
       H    14.69521    8.11251   18.09547
       O    14.97451    8.23543   17.13081
      H1    14.31306    8.84285   16.72234
       H    15.83288    8.04610   15.48047
       O    15.97290    8.49298   14.54690
      H1    16.83168    8.04120   14.35545
       H    11.35586   -0.81274   11.80895
       O    11.69839   -0.79891   10.91682
      H1    12.54891   -1.12094   11.24273
       H    14.21103    6.67855   16.75098
       O    13.83910    5.80249   16.64022
      H1    13.22203    5.70038   17.39446
       H    17.70707    5.51013   18.41079
       O    18.51996    5.15384   18.13967
      H1    18.38733    4.25429   18.36564
       H    16.96093   -5.27256   13.03648
       O    16.71322   -4.72357   12.28060
      H1    17.06617   -3.87155   12.63125
       H     7.32529    8.41903   13.35752
       O     7.92422    7.67887   13.15672
      H1     8.51266    7.78485   13.88524
       H     9.30108    3.69639   11.14074
       O    10.12810    4.11327   10.85422
      H1    10.80856    3.41927   10.78875
       H    16.79184   -1.72059   19.36888
       O    16.38485   -2.27303   18.69530
      H1    16.53067   -3.14298   19.08228
       H    14.62723    7.76795   13.61957
       O    13.90534    7.30945   13.19097
      H1    13.48769    8.05571   12.71130
       H    14.58714   -0.40378   12.20647
       O    14.38077   -1.14134   11.61099
      H1    15.06390   -1.80410   11.92766
       H    18.11784    0.88861   11.87612
       O    18.55517    0.56468   12.70930
      H1    18.13330   -0.30846   12.94544
       H    17.22865    1.03205   16.08551
       O    17.03741    0.29546   16.73472
      H1    17.91416    0.00420   17.06956
       H    14.59397    3.64250   12.54784
       O    14.48534    3.53678   11.53103
      H1    15.39555    3.32929   11.30073
       H    10.05717   11.33463   15.46578
       O    10.81783   10.95369   16.07211
      H1    10.19955   10.29027   16.49326
       H    11.54556    0.31697   14.51936
       O    12.38079   -0.08100   14.21399
      H1    13.08350    0.52056   14.49297
       H    15.92102    1.24578   17.63764
       O    15.05815    1.50473   17.97862
      H1    14.75180    0.59925   18.10930
       H    18.28445   11.44061   18.04155
       O    17.84006   12.05099   18.63965
      H1    17.66012   12.81319   18.10187
       H    13.78963   11.67440   15.87059
       O    13.49970   10.79702   16.27632
      H1    12.53602   10.72355   16.32863
       H    16.97783    2.80901   14.67278
       O    17.01239    1.83744   14.68565
      H1    17.59443    1.77288   13.95817
       H    18.90432    9.34712   17.27207
       O    18.81983   10.22176   17.02330
      H1    19.72570   10.31924   16.64103
       H    13.99963   13.09520   19.25253
       O    13.47528   12.34902   19.69392
      H1    14.12206   11.63389   19.44571
       H    14.80772   -2.22434   15.77000
       O    15.73660   -1.94566   15.54558
      H1    15.87572   -1.08593   15.97348
       H    16.31433   10.57627   13.86924
       O    16.38371   11.49026   13.58652
      H1    17.34752   11.62587   13.59995
       H     8.86629    4.60739   15.00414
       O     9.49445    5.24714   15.23126
      H1     8.94471    6.02941   15.08291
       H    11.29417    5.34065   18.29553
       O    11.35984    4.67514   17.53694
      H1    10.73272    5.06146   16.82198
       H    12.79376   -3.06991   15.01487
       O    12.96096   -2.31452   15.59775
      H1    12.70257   -1.57991   15.01284
       H    13.97727    4.65446   14.37255
       O    14.56216    3.85868   14.26837
      H1    13.90540    3.10905   14.53624
       H    10.66318    6.37545   11.11711
       O    10.82188    7.33097   11.16233
      H1    10.01815    7.67553   10.75182
       H    12.08282   10.91613   13.08050
       O    12.77384   10.41176   13.54731
      H1    12.60890   10.55719   14.45688
       H    17.26923    4.39109   10.09773
       O    17.46242    5.35079   10.22228
      H1    16.66738    5.78134   10.60665
       H     8.80568   -1.16175   15.28496
       O     8.35111   -1.98919   15.09561
      H1     8.48795   -2.29112   15.99288
       H    13.41555   -1.72302   17.84152
       O    13.65940   -1.29566   18.64755
      H1    14.58208   -1.56606   18.88524
       H    18.74128   -2.68110   13.18445
       O    17.82861   -2.52617   13.35267
      H1    17.74436   -2.52453   14.33965
       H     8.49363    1.98800   18.66898
       O     8.05409    1.28085   18.19581
      H1     8.55646    0.50515   18.50241
       H    10.47100   10.73876   19.02107
       O    10.91465   11.17614   19.80870
      H1    11.60214   11.72119   19.41166
       H     9.49098    0.96987   16.50552
       O     9.51172    0.64294   15.59251
      H1     9.05336    1.38407   15.11778
       H     6.86323    8.08272   17.71297
       O     7.36685    7.29190   18.03633
      H1     6.89102    6.49602   17.61918
       H    17.56102   -3.86126   16.37190
       O    18.24894   -3.12442   16.24397
      H1    17.79081   -2.36811   16.59518
       H     9.93335    8.63016   18.29802
       O     9.62991    9.53536   18.21631
      H1     8.74306    9.43718   17.82291
       H    15.93316    4.34830   15.34867
       O    16.83408    4.25677   15.64586
      H1    16.79943    4.29113   16.61932
       H    17.20557    9.65951   10.78007
       O    17.81315    9.04295   11.15557
      H1    18.45603    8.87842   10.47555

