180
frame 11 | Written by MDAnalysis XYZWriter (release 2.4.3)
       H    11.92046  -11.57471  -13.63452
       O    12.26413  -10.83253  -14.15625
      H1    12.86085  -10.47856  -13.41473
       H    13.32699   -8.70171   -6.60995
       O    13.23029   -9.28863   -5.87570
      H1    13.67041   -8.77861   -5.14669
       H    13.12058   -4.93932   -3.17671
       O    13.01937   -5.20446   -4.11826
      H1    12.12685   -5.61216   -4.07681
       H    16.82891   -6.01689  -14.33412
       O    16.35807   -6.25540  -13.50488
      H1    15.79771   -5.44441  -13.40752
       H     5.50073   -5.62088   -8.79132
       O     6.39681   -5.52227   -9.11938
      H1     6.27536   -4.95001   -9.90054
       H     9.19167   -3.91264  -12.08549
       O     8.88076   -3.03830  -11.87507
      H1     9.61490   -2.44868  -12.13902
       H     7.70158   -5.70750   -2.84952
       O     8.20357   -5.37396   -3.61139
      H1     7.86141   -5.79182   -4.41309
       H    11.92166   -4.13807  -16.94445
       O    12.58449   -4.19506  -16.19090
      H1    12.50727   -5.12997  -15.93993
       H    13.53284   -0.12739  -10.26334
       O    12.90704   -0.25110  -11.00013
      H1    12.65411   -1.16466  -10.99077
       H     9.46366   -2.57113  -10.35860
       O     9.77954   -2.44042   -9.41436
      H1     8.97398   -2.72999   -8.92130
       H    13.78608   -5.76055  -10.07661
       O    13.05556   -5.77603  -10.71904
      H1    12.31770   -5.48613  -10.11065
       H     5.57158   -0.98490  -14.39275
       O     6.10370   -1.36007  -13.69006
      H1     6.66839   -0.66257  -13.41128
       H    15.18284   -6.14797   -5.87740
       O    15.52345   -5.76982   -5.04116
      H1    14.68820   -5.35986   -4.69407
       H     7.48289    0.91482  -12.62948
       O     8.13634    0.48662  -13.22345
      H1     8.72512    1.25482  -13.27958
       H    10.85436  -11.10123  -10.45770
       O    11.48283  -11.73343  -10.73856
      H1    11.03604  -12.26041  -11.43333
       H    12.67704   -3.95544  -11.40962
       O    12.47239   -3.04031  -11.71299
      H1    12.02496   -3.18443  -12.56296
       H    10.54159   -3.11222   -6.11174
       O     9.81752   -3.71002   -6.40454
      H1    10.19037   -4.58931   -6.19652
       H     4.85282   -4.34495   -6.97348
       O     5.55213   -4.04939   -6.27832
      H1     6.18931   -3.56738   -6.81539
       H    10.74189   -0.67548  -15.54610
       O    10.22177   -1.17706  -16.20857
      H1     9.51315   -1.56387  -15.67428
       H     9.82982   -0.70178   -9.47211
       O     9.68747    0.25987   -9.48176
      H1     8.81710    0.35726   -9.88126
       H    10.31227   -8.67108  -13.82288
       O     9.55043   -8.27078  -14.32853
      H1     9.74835   -8.61947  -15.24598
       H    15.01183   -3.71390   -9.27714
       O    15.47773   -4.49098   -9.75564
      H1    16.39269   -4.11055   -9.78334
       H     3.13030   -4.40121  -12.64859
       O     3.37455   -4.65318  -11.76461
      H1     3.88553   -5.43004  -12.06269
       H     9.51785   -6.43007  -14.27967
       O     9.21560   -5.50245  -14.45223
      H1     8.45927   -5.52186  -13.85583
       H    14.87904   -7.28061   -8.52098
       O    14.65166   -6.58963   -7.93952
      H1    15.07323   -5.84440   -8.43120
       H     6.92198   -3.18994  -11.41406
       O     6.08886   -3.25683  -10.90952
      H1     5.43237   -3.58707  -11.54613
       H    15.17768   -4.07737  -11.70660
       O    15.26065   -3.87570  -12.68989
      H1    14.42226   -3.34600  -12.78773
       H    11.88188    2.19766   -7.76055
       O    11.69911    1.28977   -7.42089
      H1    11.00106    0.96810   -8.09361
       H    13.74616   -2.64311   -7.66417
       O    14.48852   -2.42501   -8.23042
      H1    15.27844   -2.32887   -7.58948
       H     9.49850   -0.59273  -12.73003
       O    10.40695   -0.89939  -12.52361
      H1    10.50548   -0.33071  -11.73835
       H    11.69510   -3.75277  -14.85167
       O    11.19578   -3.85044  -14.02498
      H1    10.54267   -4.49749  -14.28078
       H     8.24703   -7.70531   -8.60366
       O     8.97122   -7.41262   -7.99645
      H1     9.45281   -6.86107   -8.62439
       H    10.41237   -4.32603   -8.98936
       O    10.72346   -5.21264   -9.27411
      H1    10.28367   -5.20754  -10.15134
       H     9.85320   -6.08021   -3.87108
       O    10.55417   -6.37127   -4.50325
      H1    11.02997   -7.12640   -4.16955
       H     9.64897   -9.31195   -9.23617
       O     9.60370  -10.27847   -9.25900
      H1     8.74495  -10.40174   -9.75844
       H     6.47552   -7.66924  -10.18604
       O     7.31324   -8.08351  -10.32019
      H1     6.96836   -8.94652  -10.64642
       H    14.03567   -8.10900  -14.41241
       O    14.77227   -8.55981  -13.94789
      H1    15.27582   -7.70890  -13.86013
       H     6.65839   -3.33207   -4.87515
       O     7.05805   -2.52040   -4.46302
      H1     7.67570   -2.92176   -3.87554
       H    10.11982   -8.43744   -5.16742
       O     9.70771   -9.30120   -4.97166
      H1    10.44059   -9.88778   -5.31908
       H    11.95576   -7.16812  -14.46748
       O    12.51272   -6.72453  -15.09461
      H1    12.50482   -7.23123  -15.89613
       H     8.46713   -6.39001  -11.24617
       O     9.24163   -5.91754  -11.41892
      H1     9.80626   -6.58411  -11.84128
       H    12.91103   -2.62643   -5.62961
       O    12.76179   -3.37739   -6.19982
      H1    12.57929   -4.06982   -5.50019
       H     9.58108   -0.94686   -5.55768
       O    10.16372   -1.05244   -4.70104
      H1     9.55374   -1.47446   -4.09085
       H     5.25991   -3.60174  -15.73866
       O     5.80319   -3.97179  -14.96471
      H1     6.28091   -3.14940  -14.67838
       H    12.06589   -7.46648   -8.06679
       O    11.87693   -8.42148   -8.02668
      H1    10.92107   -8.38595   -7.81418
       H     7.21949   -4.08227   -8.21310
       O     7.56222   -3.19342   -7.92687
      H1     8.08240   -3.57295   -7.19901
       H    13.93106   -0.70293   -8.42337
       O    13.99780    0.25913   -8.54037
      H1    13.05954    0.52554   -8.30826
       H    13.27527   -0.16540  -13.03230
       O    12.71660   -0.26477  -13.79908
      H1    11.86879   -0.57598  -13.37547
       H     6.94453    1.68131  -10.30583
       O     7.22688    0.76691  -10.60520
      H1     6.46342    0.26886  -10.39048
       H     5.97093   -6.06190  -12.86482
       O     6.77073   -5.52751  -13.00116
      H1     6.48519   -5.05905  -13.82555
       H     6.99568   -6.92311  -15.22046
       O     6.17592   -6.76303  -15.72713
      H1     6.25463   -5.77128  -15.79528
       H     4.74459   -7.90758   -8.13638
       O     4.64841   -8.03050   -9.05462
      H1     4.83769   -9.03051   -9.24572
       H     5.08382   -1.79184   -9.80943
       O     5.07198   -1.02593   -9.23112
      H1     4.34262   -1.18393   -8.57239
       H    14.64517  -10.62106  -11.93617
       O    13.81122  -10.20744  -11.67930
      H1    13.36140  -10.66540  -10.98711
       H     8.57787    0.19253   -7.59898
       O     8.47834   -0.24354   -6.75044
      H1     7.97580   -1.06193   -6.94379
       H     8.74822  -10.66535   -7.47189
       O     8.13357  -10.52190   -6.76676
      H1     8.68653   -9.97048   -6.17018
       H    16.64028   -8.01109  -10.20341
       O    15.71737   -8.17939   -9.93982
      H1    15.26327   -8.24000  -10.72919
       H    12.58972   -8.33874  -11.91516
       O    11.90670   -7.74639  -12.27474
      H1    12.10006   -7.00416  -11.71406
       H     6.76944   -5.88958   -6.55722
       O     6.94195   -6.51860   -5.88130
      H1     7.48476   -7.17929   -6.34544
       H     7.91469   -2.30947  -13.88990
       O     8.42014   -2.35910  -14.74461
      H1     9.17166   -2.97727  -14.49294

