180
frame 8 | Written by MDAnalysis XYZWriter (release 2.4.3)
       H    11.36135  -13.88631   -4.26979
       O    10.51404  -13.79841   -4.76127
      H1    10.65548  -12.94575   -5.15183
       H     5.70839   -4.53602   -1.93431
       O     5.60045   -4.95985   -2.77987
      H1     4.69985   -4.92486   -3.09969
       H    12.58004  -14.90520   -1.86714
       O    12.41912  -15.50361   -1.13878
      H1    11.89767  -16.11545   -1.64046
       H     8.15766   -9.49714   -2.93430
       O     7.91835   -9.49629   -1.97806
      H1     6.92024   -9.47596   -2.04690
       H    11.31903   -6.27074    1.94015
       O    11.55146   -6.39949    2.90651
      H1    10.89398   -5.80580    3.30960
       H     7.09328  -13.14050    2.33937
       O     7.82872  -13.19178    1.58124
      H1     8.43630  -12.53596    1.98999
       H    12.62498   -9.96832   -7.23703
       O    13.47986  -10.11215   -6.73988
      H1    13.29815   -9.64791   -5.91251
       H    16.35091   -5.28614   -4.04998
       O    16.94192   -4.90027   -3.37801
      H1    17.17219   -5.69205   -2.90882
       H    11.68365  -14.16827    2.20687
       O    11.51143  -13.26765    2.54624
      H1    11.15132  -12.82006    1.78799
       H    12.31796   -4.88295   -3.69105
       O    12.21490   -4.92361   -4.67754
      H1    11.55188   -5.67780   -4.73490
       H    18.23623  -11.30107   -2.68236
       O    17.89066  -11.60608   -3.56057
      H1    17.37737  -10.86647   -3.92890
       H     7.22632   -5.87324   -3.98328
       O     7.63649   -6.08342   -4.80240
      H1     7.08219   -6.83124   -5.09429
       H     9.20610  -10.58873    3.82402
       O     8.44906  -10.92651    3.39315
      H1     7.71263  -10.46397    3.85568
       H    13.47290  -10.84583   -1.62384
       O    12.76266  -10.68035   -2.27440
      H1    11.96543  -11.11085   -1.88474
       H    13.23428   -6.17935   -2.10256
       O    12.82916   -5.29321   -1.93857
      H1    13.67031   -4.88530   -1.70574
       H    13.38403   -8.27859   -3.66101
       O    13.44716   -8.44563   -4.66052
      H1    13.74436   -7.58181   -4.99914
       H    14.68996   -5.45485   -6.40352
       O    14.81699   -5.46755   -5.42107
      H1    13.93300   -5.11716   -5.19048
       H    11.25578   -8.20963   -1.33314
       O    11.56343   -8.24656   -2.24780
      H1    12.06026   -9.10421   -2.21815
       H     8.16379  -11.92003   -5.76076
       O     7.29988  -12.36748   -5.73552
      H1     6.78691  -11.59609   -5.88151
       H    11.40684   -4.67897   -1.14701
       O    10.45331   -4.51105   -0.97938
      H1    10.59935   -3.80253   -0.26943
       H    14.93301   -3.46508    1.94166
       O    15.09930   -2.50995    1.94382
      H1    14.76294   -2.19902    1.07886
       H     8.96088   -4.85530   -5.52419
       O     9.54406   -4.48335   -6.21950
      H1    10.20056   -3.99756   -5.77488
       H    12.73178   -2.61706    4.25933
       O    12.34497   -2.55926    3.40309
      H1    12.93754   -3.01895    2.83004
       H    17.25073   -7.01917   -1.03246
       O    17.50567   -7.29033   -1.91928
      H1    18.37714   -7.63202   -1.83006
       H     8.22157   -7.07556   -0.86646
       O     8.09957   -6.65041    0.02925
      H1     7.44134   -7.26692    0.47427
       H    15.62753   -7.90627   -2.04474
       O    14.60354   -7.77729   -2.01802
      H1    14.30074   -8.58234   -1.60987
       H     9.77164  -11.98456   -7.07041
       O     9.74242  -11.24048   -6.45291
      H1    10.10252  -10.54985   -6.99656
       H     5.28573  -11.69257   -0.68953
       O     5.33952  -12.62961   -0.46010
      H1     6.08236  -12.69916    0.13483
       H    13.22242  -13.83595   -3.69720
       O    12.70466  -13.45167   -2.97696
      H1    13.06008  -12.54459   -2.93656
       H     9.49684   -9.91714    5.84442
       O    10.24001  -10.47741    5.55939
      H1    10.99354   -9.86162    5.45573
       H     9.38922  -10.84478    1.81698
       O    10.20463  -10.73960    1.34181
      H1     9.97907  -10.76912    0.38806
       H     5.46009   -6.08748   -1.59279
       O     5.17571   -6.69978   -0.85895
      H1     5.22072   -6.20186    0.01399
       H    14.68704   -8.00990    2.37924
       O    15.40935   -7.50309    2.78448
      H1    15.99474   -7.25774    2.06668
       H    11.59141   -1.97364   -0.02596
       O    11.60691   -2.61232    0.67256
      H1    11.32566   -2.19949    1.49171
       H     8.97594   -1.84069   -1.73753
       O     8.84893   -2.70097   -2.14857
      H1     9.62152   -3.18521   -1.84632
       H    12.17039   -7.45708    5.66402
       O    12.18338   -8.21913    5.07204
      H1    11.76317   -7.88047    4.23986
       H    10.46022   -6.49925   -8.90716
       O    10.21534   -7.23893   -8.34577
      H1    10.42006   -6.85931   -7.47776
       H     9.50176   -6.50912   -4.47342
       O    10.33041   -7.06879   -4.46042
      H1    10.54918   -7.34872   -3.54112
       H    11.65365   -0.85436   -2.12549
       O    12.17095   -1.54491   -1.74540
      H1    12.80452   -1.69805   -2.43364
       H     7.79755   -3.51253   -0.79497
       O     6.93848   -3.66593   -0.34727
      H1     7.12174   -4.53648   -0.00144
       H     6.69824   -3.25538   -5.04469
       O     6.95631   -2.64487   -4.33929
      H1     7.71774   -3.04690   -3.84487
       H     9.39734   -8.72654   -4.68453
       O     8.82269   -9.52272   -4.52204
      H1     9.20482  -10.08861   -5.19735
       H    12.17676   -3.64991   -6.53069
       O    12.75825   -3.49788   -7.26887
      H1    12.76974   -4.29525   -7.76260
       H    11.17420   -9.98114   -9.15398
       O    11.34397   -9.65791   -8.22650
      H1    11.12533   -8.69401   -8.27916
       H    10.36498  -13.80600   -2.51351
       O     9.49231  -13.84317   -2.07170
      H1     8.86532  -14.14997   -2.74111
       H    15.49682   -3.87725   -2.07670
       O    15.00675   -3.76528   -1.27625
      H1    14.70969   -2.87572   -1.24181
       H    15.70012   -6.06587    0.08897
       O    16.53441   -6.27209    0.56334
      H1    16.85085   -5.34832    0.60912
       H    15.97742  -10.41120   -5.31340
       O    16.32378   -9.72291   -4.68768
      H1    15.49371   -9.45958   -4.30748
       H     9.25411  -10.44599   -1.37369
       O     9.98755  -11.09000   -1.28251
      H1     9.50230  -11.89387   -1.61907
       H     4.43288   -9.93882   -2.29854
       O     5.36083  -10.11820   -2.09511
      H1     5.58462  -10.84163   -2.68490
       H     9.16652  -14.30338    0.85899
       O     9.94692  -14.77063    0.47551
      H1     9.80365  -14.65599   -0.48288
       H    11.42063   -6.60919   -0.37659
       O    10.88980   -7.28505    0.19037
      H1     9.98700   -6.92095    0.03121
       H     6.24332  -13.01128   -2.90583
       O     5.88599  -12.33948   -3.50642
      H1     6.42914  -12.49103   -4.27047
       H    14.25082   -9.70098    0.25778
       O    14.77791  -10.17939   -0.40616
      H1    15.64551   -9.94660   -0.03337
       H     7.77560   -7.45129    4.76089
       O     7.66600   -6.80607    4.09109
      H1     6.78158   -6.82754    3.81611
       H     6.15878   -8.78577   -6.54027
       O     6.30659   -8.39630   -5.63909
      H1     7.20492   -8.69661   -5.62381
       H    12.44104   -9.19901    1.78639
       O    13.43745   -9.30100    1.88247
      H1    13.45983  -10.07696    2.40187
       H    14.83501   -5.89972    2.65036
       O    14.29563   -5.10789    2.62702
      H1    13.40955   -5.48048    2.58859
       H    16.89652  -10.29040    1.57213
       O    17.08655   -9.63178    0.84711
      H1    17.91662   -9.26182    1.05276
       H     8.63577   -4.79354    1.74006
       O     8.70447   -4.49796    2.62933
      H1     8.66389   -5.29417    3.16855

