180
frame 17 | Written by MDAnalysis XYZWriter (release 2.4.3)
       H    -5.74547   -6.14018   -6.99104
       O    -6.54623   -5.52820   -6.92520
      H1    -7.07521   -6.15614   -6.41742
       H   -14.88425   -4.92493   -3.25622
       O   -15.35389   -5.26318   -4.01238
      H1   -15.67661   -4.47194   -4.51471
       H   -11.37463   -3.52777   -3.16063
       O   -11.83898   -3.82619   -2.33000
      H1   -12.64853   -3.39628   -2.43931
       H   -14.18176   -6.70255   -3.99969
       O   -13.61131   -7.45095   -4.32454
      H1   -12.93472   -7.38426   -3.57689
       H    -7.31338   -5.85804   -4.81426
       O    -7.78861   -6.70880   -4.96199
      H1    -7.14201   -7.33185   -4.56277
       H    -9.70173   -3.54336   -4.81330
       O   -10.67001   -3.85875   -4.65991
      H1   -10.68059   -4.84138   -4.55303
       H   -10.03202   -4.20401    1.34610
       O    -9.55381   -3.35498    1.43820
      H1    -9.02515   -3.59198    2.21289
       H    -9.75884   -0.81999   -1.18267
       O   -10.34444   -0.00085   -1.06261
      H1    -9.63348    0.51921   -0.64062
       H    -7.53339   -5.42857   -8.95994
       O    -8.37200   -4.92914   -9.02422
      H1    -9.10088   -5.38435   -8.55037
       H    -9.88353   -8.91005    0.21678
       O   -10.38456   -9.73017    0.35173
      H1    -9.80660  -10.30222    0.91964
       H   -13.15042   -2.84979   -9.79727
       O   -12.75697   -1.97880  -10.01496
      H1   -12.17738   -1.79332   -9.24580
       H    -5.51101   -4.99719   -2.03559
       O    -6.03850   -5.49581   -1.39652
      H1    -5.50453   -6.30886   -1.31998
       H    -8.59662  -12.56640   -1.80589
       O    -8.59692  -11.57576   -1.73199
      H1    -8.91382  -11.32500   -0.86747
       H    -5.21412  -10.67287   -6.07737
       O    -5.79372  -11.00327   -6.76878
      H1    -6.14878  -11.76175   -6.34292
       H    -9.71175   -4.56747  -12.14734
       O    -9.12035   -4.02697  -11.56731
      H1    -9.18361   -4.36016  -10.63901
       H   -13.99839   -2.01170   -1.28870
       O   -14.38718   -2.81806   -1.57662
      H1   -15.34848   -2.75453   -1.47332
       H   -12.05970   -9.36364   -2.06754
       O   -11.92970  -10.30554   -2.18623
      H1   -12.44995  -10.66854   -1.44750
       H    -9.79546   -7.34378   -7.79135
       O   -10.18686   -6.44257   -7.74942
      H1   -10.20943   -6.27983   -6.81310
       H   -14.41649   -0.54741   -5.73817
       O   -14.19066   -0.39156   -6.64440
      H1   -13.44466   -1.02247   -6.78498
       H   -14.38456   -9.06537   -3.50609
       O   -15.16318   -9.53199   -3.18676
      H1   -15.25589  -10.21782   -3.89407
       H   -11.78526   -9.81707   -5.46222
       O   -11.87031   -8.96581   -5.96817
      H1   -12.72160   -8.61200   -5.68684
       H   -14.51572   -8.00192   -5.85297
       O   -14.95661   -8.42405   -6.60485
      H1   -15.86476   -8.06640   -6.50293
       H   -16.83725   -7.98011   -0.91285
       O   -15.86894   -7.98414   -1.00138
      H1   -15.69928   -8.53984   -1.74110
       H    -4.49185  -10.00911   -9.75509
       O    -4.95575   -9.39408   -9.21711
      H1    -5.92587   -9.59353   -9.46007
       H    -9.11642  -10.17331   -2.65541
       O    -9.19012   -9.27150   -3.03807
      H1   -10.06329   -9.07948   -2.61203
       H    -8.96489   -0.82296   -4.07211
       O    -7.99734   -1.04150   -3.95594
      H1    -7.95364   -0.82325   -2.99971
       H   -10.74028  -13.87356   -5.83267
       O   -10.36707  -12.97319   -5.79816
      H1   -11.03535  -12.55466   -5.19396
       H   -12.16161   -9.89652  -11.33933
       O   -12.99623   -9.36559  -11.24335
      H1   -12.60594   -8.48481  -11.02832
       H   -13.87403   -9.31206   -8.22372
       O   -13.30906  -10.03117   -8.59111
      H1   -13.28277   -9.80144   -9.53025
       H    -8.17565  -11.40676   -8.43270
       O    -7.88942  -11.82573   -9.25131
      H1    -7.52383  -11.06167   -9.74062
       H   -11.94096  -11.65192   -8.73023
       O   -11.77164  -12.61842   -8.67746
      H1   -11.75431  -12.71883   -7.70395
       H    -8.51174   -8.90401  -10.84587
       O    -7.79406   -8.95590  -10.15712
      H1    -7.47561   -8.08539   -9.97507
       H   -12.42067   -6.60851   -2.09155
       O   -11.85643   -7.33852   -2.35110
      H1   -11.04690   -6.99670   -2.66008
       H   -12.50816  -11.17130   -3.68437
       O   -12.35152  -11.54368   -4.54435
      H1   -13.26977  -11.57487   -4.91091
       H    -8.47824  -10.69579   -6.23703
       O    -8.94942  -11.14149   -6.99320
      H1    -9.56598  -11.78977   -6.56596
       H   -11.05827   -7.52073   -5.35543
       O   -10.53952   -6.83330   -4.88710
      H1    -9.62428   -7.12688   -4.89315
       H    -9.07586   -0.91563   -6.49798
       O    -9.96439   -0.64605   -6.19759
      H1    -9.85792    0.29245   -6.00034
       H    -6.42444   -2.99417   -8.01229
       O    -7.38306   -2.69687   -7.86321
      H1    -7.81932   -3.56094   -8.04357
       H   -10.54041   -6.31541    0.43182
       O    -9.92176   -6.99177    0.10141
      H1    -9.16703   -6.77465    0.61075
       H   -12.91933  -10.15259    0.86753
       O   -13.12219   -9.32482    0.34853
      H1   -12.24186   -8.92985    0.31657
       H    -8.61926  -13.50954   -5.58922
       O    -7.70033  -13.68398   -5.74553
      H1    -7.56942  -13.81266   -6.68223
       H   -11.72460   -2.95800   -5.92143
       O   -12.11763   -2.37798   -6.59564
      H1   -11.50843   -1.61065   -6.44413
       H   -10.43071  -10.18842  -10.32629
       O   -10.35979  -10.04347  -11.29052
      H1   -10.01567  -10.90639  -11.59328
       H    -7.14528   -8.15283    1.60731
       O    -6.84979   -8.99288    1.14218
      H1    -7.11165   -8.65213    0.20102
       H   -11.26302   -9.52156   -7.77377
       O   -10.67982   -9.47198   -8.52826
      H1    -9.92829  -10.10603   -8.16217
       H   -14.97212   -6.66043   -1.32520
       O   -14.16664   -6.03214   -1.51111
      H1   -13.74184   -6.00654   -0.66109
       H    -4.83868  -10.99771   -3.16060
       O    -4.59601  -10.66241   -4.02212
      H1    -4.92782   -9.77420   -3.99885
       H   -11.91827   -6.92860   -9.74427
       O   -12.76843   -7.03203   -9.35649
      H1   -12.62519   -7.14354   -8.40392
       H   -11.96313   -4.39005   -0.56779
       O   -11.68994   -4.94694    0.24898
      H1   -12.25531   -4.55303    0.96346
       H    -7.96873   -8.40980   -1.99047
       O    -7.08590   -8.14072   -1.57776
      H1    -7.14031   -7.17126   -1.51687
       H    -6.31018   -6.32536  -10.85895
       O    -6.20054   -6.57301   -9.90297
      H1    -5.42374   -7.09349   -9.89292
       H   -15.70558  -11.50369   -6.04744
       O   -15.02190  -10.95177   -5.58451
      H1   -14.98857  -10.11639   -6.16611
       H    -7.66480   -2.59746   -4.69459
       O    -7.43631   -3.43980   -5.13118
      H1    -7.20746   -3.07386   -6.00441
       H    -6.33412   -8.50960   -3.20259
       O    -5.82549   -8.25245   -3.96039
      H1    -5.08161   -7.74433   -3.59968
       H    -5.47320  -12.34491   -1.04885
       O    -5.82292  -11.83509   -1.82429
      H1    -6.77514  -11.86604   -1.66311
       H    -3.63223   -5.96626   -6.70342
       O    -4.16434   -6.54481   -7.25930
      H1    -3.84323   -7.43635   -6.96634
       H   -17.37337   -3.96847   -6.31416
       O   -17.00091   -3.33782   -5.66445
      H1   -16.18425   -2.95960   -6.02234
       H    -8.93423   -2.85754   -0.51279
       O    -9.32451   -2.55115   -1.36309
      H1   -10.19984   -2.98564   -1.30197
       H   -14.46143   -4.75279  -10.62437
       O   -13.88078   -4.53197   -9.90001
      H1   -13.59686   -5.40163   -9.60622
       H    -5.90700   -2.83599   -2.50322
       O    -5.49223   -3.32116   -3.20758
      H1    -6.17322   -3.30322   -3.95738

