180
frame 10 | Written by MDAnalysis XYZWriter (release 2.4.3)
       H    -7.92119  -17.62042  -11.69252
       O    -8.47221  -18.32815  -11.39285
      H1    -8.13706  -19.16512  -11.74049
       H    -9.01531  -19.23619   -7.00812
       O    -8.62584  -19.45454   -6.13389
      H1    -9.34481  -19.89400   -5.63151
       H    -4.23207  -14.94664  -11.17136
       O    -4.86636  -15.12408  -11.83882
      H1    -5.67516  -14.76558  -11.40289
       H    -9.26129  -16.94229   -3.39104
       O    -9.21466  -16.84988   -4.39225
      H1    -8.42047  -17.33236   -4.62323
       H     1.37385  -16.24478  -10.55689
       O     1.01562  -17.18972  -10.52664
      H1     0.71347  -17.25487  -11.41741
       H    -0.74874  -13.57671   -6.77058
       O    -1.53104  -14.10584   -6.87956
      H1    -2.09024  -14.05781   -6.09482
       H    -4.38089  -13.53614  -14.52236
       O    -4.27394  -13.14767  -13.61646
      H1    -4.38691  -13.82304  -12.94280
       H   -10.71139  -16.92208  -12.01720
       O   -10.72918  -16.69584  -11.04000
      H1    -9.86772  -17.09007  -10.76121
       H    -0.06571  -11.43943   -6.43441
       O     0.10834  -12.27409   -6.10986
      H1     0.06727  -12.27607   -5.16415
       H    -4.33588  -18.10626   -3.22901
       O    -3.63331  -18.50779   -3.81250
      H1    -3.45367  -17.84319   -4.47155
       H    -5.70111  -18.24765  -12.52285
       O    -6.04546  -17.41116  -12.86556
      H1    -5.54467  -16.74031  -12.40351
       H   -10.93599  -13.51801  -11.02976
       O   -10.63243  -13.95143  -10.19528
      H1   -10.61429  -14.85731  -10.43717
       H    -9.58839  -12.57896   -9.86592
       O    -8.98741  -11.88900   -9.48394
      H1    -9.27827  -11.81256   -8.55654
       H    -8.98626  -16.13202   -7.90165
       O    -8.29397  -15.45910   -7.99489
      H1    -8.55143  -15.01975   -7.23738
       H    -2.64512  -15.24564   -4.87721
       O    -2.58634  -14.32610   -4.50589
      H1    -3.48426  -13.96939   -4.66195
       H    -7.15263  -18.68081   -5.10116
       O    -6.64885  -17.85624   -5.19477
      H1    -6.80301  -17.70154   -6.13756
       H    -1.33805  -13.29529   -3.17168
       O    -0.59304  -12.73656   -2.84341
      H1    -1.10150  -11.93729   -2.61577
       H    -6.22440  -17.06612   -7.86919
       O    -6.60800  -17.93781   -7.94475
      H1    -7.55072  -17.84292   -8.11643
       H     1.08308  -15.10893   -3.18155
       O     1.00166  -14.90734   -2.21765
      H1     0.68344  -14.02129   -2.24839
       H    -2.12521  -17.32318  -11.45318
       O    -2.64411  -17.79766  -10.72124
      H1    -2.22711  -17.52401   -9.89383
       H    -4.51620  -12.31965   -4.60992
       O    -5.18126  -13.00945   -4.44060
      H1    -5.66915  -13.22435   -5.26044
       H    -5.08054   -9.11506  -11.81404
       O    -5.77480   -9.50432  -11.26585
      H1    -5.54578   -9.10557  -10.39975
       H    -9.03398  -18.80666   -9.74475
       O    -9.38138  -18.89157   -8.83898
      H1    -9.74197  -19.76545   -8.90954
       H    -6.08958  -12.72451  -13.27043
       O    -6.94863  -12.70516  -12.92342
      H1    -7.25667  -11.87872  -12.61299
       H    -7.14118   -8.38601   -8.03201
       O    -7.26252   -8.97293   -7.31081
      H1    -6.47201   -8.83459   -6.77316
       H   -10.13796  -10.39773   -6.88833
       O    -9.80091  -11.29549   -6.65003
      H1   -10.55562  -11.86539   -6.51545
       H    -0.06402  -19.53443   -3.04009
       O     0.36128  -19.00793   -2.32483
      H1    -0.37381  -18.48906   -1.94203
       H    -8.73993  -15.26368   -4.97043
       O    -8.54135  -14.37724   -5.47958
      H1    -9.22433  -13.84477   -5.05894
       H    -4.00955  -15.31758   -8.28036
       O    -4.48496  -15.68573   -7.51023
      H1    -5.06084  -14.99531   -7.30627
       H    -2.70422  -14.97647   -1.04623
       O    -3.24508  -14.89022   -1.83476
      H1    -2.69756  -14.93469   -2.65637
       H    -1.58992  -13.99783  -10.35770
       O    -0.77864  -13.81241  -10.96491
      H1    -0.28439  -13.11978  -10.46722
       H    -6.06464  -17.48253   -3.62469
       O    -5.87715  -17.36187   -2.72299
      H1    -5.65581  -16.41495   -2.67210
       H    -0.65971  -16.46353  -13.02479
       O    -1.50150  -16.28335  -12.65716
      H1    -1.36718  -15.43947  -12.22660
       H    -6.38799   -8.19551   -4.79357
       O    -5.88564   -8.98979   -4.94715
      H1    -6.42729   -9.71747   -4.75560
       H     0.73335  -11.10454  -10.82718
       O     0.81214  -11.47038   -9.95584
      H1     0.28934  -10.78808   -9.53666
       H    -8.65888  -11.17710   -5.18237
       O    -8.21702  -10.69908   -4.51892
      H1    -8.04960  -11.27271   -3.77296
       H    -3.42708  -16.42380   -6.27618
       O    -2.84841  -16.62850   -5.49437
      H1    -2.03813  -17.01016   -5.81923
       H    -2.35083  -14.28168   -8.51115
       O    -2.76158  -14.43313   -9.35181
      H1    -3.28221  -13.56363   -9.53457
       H    -0.92730   -8.63067   -9.02821
       O    -0.81357   -9.33743   -8.42237
      H1    -1.35436   -9.18998   -7.60725
       H    -0.15996  -17.56500   -8.92414
       O    -0.90577  -17.73576   -8.37477
      H1    -1.19407  -18.61783   -8.56777
       H    -3.28153  -11.94263  -12.88879
       O    -2.79073  -11.40685  -12.23860
      H1    -2.29699  -12.04275  -11.65119
       H    -5.82654  -13.81348   -3.19921
       O    -5.86231  -14.47029   -2.48881
      H1    -4.89970  -14.53076   -2.17301
       H    -8.70523  -12.41072   -2.08951
       O    -7.74817  -12.20699   -2.32193
      H1    -7.42025  -13.06785   -2.68326
       H    -4.36841  -11.63095   -0.08499
       O    -3.60268  -12.20959   -0.10806
      H1    -3.81488  -12.84049   -0.80818
       H    -5.83945  -16.17644   -0.26487
       O    -6.41953  -15.72865    0.37464
      H1    -6.91769  -15.07880   -0.08974
       H    -2.66872  -18.12787   -2.49508
       O    -2.25668  -17.76777   -1.65533
      H1    -2.79230  -16.94931   -1.53363
       H    -8.06244  -14.71145  -11.09747
       O    -7.58923  -15.52671  -10.75342
      H1    -7.71537  -15.47298   -9.79023
       H   -11.69995  -14.32370   -8.07033
       O   -11.69988  -14.39027   -7.16238
      H1   -11.43928  -15.24983   -6.99694
       H   -10.98949  -17.71769   -7.07683
       O   -10.53985  -16.87378   -6.92898
      H1   -10.08606  -17.07742   -6.05669
       H    -0.00657  -18.56871   -5.50218
       O    -0.15230  -17.63368   -5.81746
      H1    -0.43675  -17.69454   -6.74438
       H     2.61851  -13.81013  -10.42603
       O     2.13000  -14.56050  -10.85834
      H1     1.20338  -14.35023  -10.89744
       H    -7.35216  -19.10485   -0.55521
       O    -7.77940  -18.26199   -0.87907
      H1    -7.08848  -17.80554   -1.42044
       H     0.71526  -16.23277   -5.08893
       O     0.81646  -15.25040   -4.93582
      H1     0.00434  -14.83228   -5.26092
       H    -7.29434  -13.65227   -6.38377
       O    -6.36344  -13.44185   -6.69055
      H1    -6.46426  -12.80045   -7.34359
       H    -4.27125  -18.74086  -10.07565
       O    -5.10194  -19.19654   -9.85377
      H1    -5.62407  -18.53566   -9.31474
       H    -4.73017   -7.30348   -9.26377
       O    -4.85856   -8.20384   -8.94649
      H1    -3.94966   -8.53617   -8.90804
       H    -6.81662  -10.78649   -8.11164
       O    -6.53708  -11.54168   -8.64125
      H1    -7.34586  -11.93638   -9.03602
       H    -3.53779  -11.25672  -10.47681
       O    -3.90266  -11.74363   -9.74441
      H1    -4.77170  -11.36426   -9.46176
       H    -2.56244   -9.67631   -5.46016
       O    -1.97140   -9.03818   -5.86032
      H1    -2.45146   -8.22391   -5.99747
       H    -4.30291  -10.15872   -4.57367
       O    -3.52633  -10.70307   -4.47808
      H1    -3.11554  -10.37080   -3.63930

