180
frame 1 | Written by MDAnalysis XYZWriter (release 2.4.3)
       H     9.02527    5.11580   10.87729
       O     8.89260    5.96507   10.47235
      H1     8.36253    6.57116   10.95142
       H     7.13390    3.50152    4.83915
       O     7.84062    2.83207    4.79338
      H1     7.58319    2.22994    5.55825
       H     4.54381   13.81186   14.36675
       O     5.03023   13.04035   14.12658
      H1     4.97771   13.03351   13.20476
       H     8.43372   12.38902    8.87169
       O     9.18523   12.92556    8.58176
      H1     9.44929   12.56066    7.74384
       H     6.82693   11.79005    4.02441
       O     7.27590   11.30220    3.34420
      H1     6.63158   11.20938    2.63410
       H     3.48562    5.10212    5.23628
       O     2.56721    5.21637    5.41808
      H1     2.13630    4.95622    4.57662
       H    11.89355    9.41780   13.46118
       O    11.91938    9.74573   12.56162
      H1    12.05810    8.89648   12.09204
       H    13.42956   11.10468    8.26544
       O    12.54579   10.81777    8.60760
      H1    12.27748   11.59140    9.16627
       H     5.96994    4.88487    4.08142
       O     5.50142    4.74976    4.90783
      H1     5.94388    5.28998    5.62151
       H     9.85628    7.86248    4.78170
       O    10.26035    6.99019    4.71852
      H1    10.53716    6.95503    3.73503
       H     4.70550   16.55420   11.59110
       O     4.89191   15.58615   11.62157
      H1     5.24903   15.32725   10.74385
       H     0.31142    8.87221    6.63793
       O     0.25756    9.36715    7.49086
      H1     0.88492   10.07008    7.49809
       H     6.42906   15.21030   12.52480
       O     7.29938   15.39718   12.88113
      H1     7.48691   14.54027   13.25728
       H     9.73178   11.46349    1.32768
       O    10.32138   11.14723    0.63084
      H1    10.26004   11.80097   -0.07959
       H     2.29125   14.68381    7.25489
       O     2.79693   15.23597    7.85373
      H1     2.59314   16.14748    7.68287
       H    12.90575    6.74746    7.02496
       O    12.77115    7.03774    6.08685
      H1    11.81697    7.00423    5.98375
       H     3.13758   11.37870    7.73823
       O     2.25325   11.47711    8.16036
      H1     2.25840   11.27141    9.11833
       H     1.48340   13.26496    5.81744
       O     1.21376   13.49253    6.67959
      H1     1.40454   12.79234    7.31664
       H     8.20655    6.85706    4.30011
       O     7.45149    6.74450    3.71489
      H1     7.61374    7.28309    2.91165
       H     8.83193    7.12707    8.45281
       O     8.79002    7.14323    7.51587
      H1     9.31013    6.37881    7.24651
       H     9.49987   10.22582    5.44064
       O     9.08545    9.64550    4.78019
      H1     8.32587   10.17290    4.46033
       H     5.37619    9.09618    0.45333
       O     6.15805    9.59512    0.75060
      H1     6.67657    9.90169    0.01937
       H     7.48769    8.35820    0.97134
       O     8.17405    7.75691    1.19342
      H1     7.85620    6.86435    0.99771
       H     9.98415   14.21249    4.95451
       O    10.43586   13.36339    4.70201
      H1    11.41958   13.61472    4.88091
       H     3.52092    8.81151    3.24431
       O     2.65489    9.22828    3.26963
      H1     2.53881    9.96056    2.71582
       H     9.31184   15.96391    8.42451
       O     8.60766   15.48641    7.94122
      H1     8.79070   14.53057    8.15363
       H     6.83992    6.60672    7.25821
       O     6.26009    5.83732    7.38783
      H1     5.37990    6.23862    7.46094
       H     5.49728   13.25837   11.10516
       O     5.43261   12.38015   11.42815
      H1     4.48894   12.21774   11.28387
       H    13.85771   13.71774    4.76936
       O    13.09897   13.43160    5.25314
      H1    13.40609   13.45508    6.15030
       H     8.81603   15.32090    6.28000
       O     8.96332   15.54174    5.34179
      H1     8.09664   15.62047    4.88399
       H    11.78066    6.71711   11.80764
       O    11.53519    7.09641   10.94322
      H1    10.66556    6.75794   10.73232
       H     5.49861   16.27925    3.37640
       O     6.27298   15.67027    3.60850
      H1     5.81149   14.80055    3.67386
       H     1.33753   14.49981   10.66893
       O     2.30213   14.27809   10.52856
      H1     2.44379   14.74215    9.68584
       H     6.93361   11.45154   10.46773
       O     7.69024   11.04718   10.08762
      H1     8.41095   11.40849   10.60649
       H     4.15810   12.03045    3.51887
       O     4.45011   11.43892    4.22360
      H1     3.83467   10.68458    4.16858
       H     9.23227   12.27294   12.85442
       O     9.35695   11.66043   12.07490
      H1     9.68921   10.79209   12.34113
       H     4.66061   12.02469    5.98125
       O     4.78294   12.12891    6.90276
      H1     5.58059   11.61667    7.03433
       H    12.54921    6.21075    9.61792
       O    12.90756    5.96713    8.73939
      H1    12.38644    5.31063    8.23709
       H    10.98884   11.25717    6.78050
       O    10.12527   11.49222    6.50733
      H1    10.22347   12.15664    5.75230
       H     7.29183   10.27051    8.30067
       O     7.09404   10.23749    7.35646
      H1     7.78781    9.67840    6.97267
       H     6.71569   15.26137    8.96461
       O     5.91510   14.86287    9.32488
      H1     5.45551   14.71883    8.55248
       H     5.13858   13.97065    6.44838
       O     5.14282   14.97367    6.51997
      H1     4.46559   15.12399    7.26061
       H    11.21602    3.67241    6.44118
       O    11.29095    4.14058    7.24556
      H1    10.85186    3.60765    7.94797
       H     4.76741    6.28209   11.41600
       O     4.86133    6.93788   10.68824
      H1     5.74229    7.31744   10.81992
       H     9.89497    7.18429    1.66644
       O    10.75350    6.84523    1.94250
      H1    11.40502    7.51524    1.71666
       H    11.13618   13.28430    9.73861
       O    11.49567   12.81546   10.44655
      H1    10.75075   12.60747   10.99457
       H     2.11870    6.90583    8.43994
       O     1.15491    7.09905    8.47223
      H1     1.17607    8.05387    8.30157
       H     0.52620   11.77190    4.00760
       O     1.33593   12.32042    3.94449
      H1     0.97825   13.13318    3.46070
       H     1.16482    8.21341    4.75568
       O     0.35987    7.83531    5.12478
      H1     0.45416    6.89855    5.23126
       H     3.73701    5.47825    8.20798
       O     3.70586    6.44250    8.24478
      H1     4.20983    6.56991    9.08528
       H     6.98810    8.58066   11.79112
       O     7.16125    8.36282   10.86174
      H1     7.32866    9.29678   10.58194
       H     4.02498   10.16170   13.57619
       O     4.84769   10.21799   14.01554
      H1     4.91402   11.15361   14.11849
       H     2.73892   12.59202   10.89371
       O     2.94336   11.63088   10.94028
      H1     2.60506   11.24747   11.76250
       H     5.74146    7.54881    3.16932
       O     5.01586    7.78299    2.60868
      H1     5.29935    8.22635    1.79452
       H    12.85763   10.82517    3.11227
       O    12.85910   11.06470    2.17498
      H1    11.98239   10.92046    1.78789
       H     5.83811   16.93118    5.72234
       O     5.87517   17.87685    5.51513
      H1     6.05080   18.38630    6.32118
       H     9.47079   13.48481    3.04289
       O     8.92251   13.18226    2.32471
      H1     8.35698   12.55593    2.78838
       H     6.75626    7.99227   13.84234
       O     7.19438    8.83821   13.70054
      H1     6.45713    9.45298   13.62385
       H     6.74526    4.13374    8.42030
       O     7.00421    3.60544    9.16644
      H1     7.76823    4.07272    9.46135
       H     5.24984   13.34939    1.64282
       O     4.41143   13.34356    2.13539
      H1     3.84344   12.72345    1.64402

