180
frame 11 | Written by MDAnalysis XYZWriter (release 2.4.3)
       H    -9.53335    9.91845  -11.28978
       O   -10.31806   10.41180  -11.59760
      H1   -10.06517   10.61963  -12.51708
       H   -13.89109    9.20738  -11.52416
       O   -14.27863    9.20661  -10.60171
      H1   -13.69638    8.57957  -10.17925
       H   -12.12636    3.57326  -11.70324
       O   -12.42984    2.98470  -12.42746
      H1   -12.79664    3.61539  -13.07104
       H    -9.62727    7.43342  -10.08669
       O   -10.26928    6.88143  -10.51466
      H1   -10.17368    7.13315  -11.45097
       H   -13.15260    5.06519   -9.52063
       O   -13.74998    5.63227   -9.01419
      H1   -14.54719    5.03887   -9.11076
       H    -7.04417    0.31066  -18.00463
       O    -7.64392   -0.37361  -17.69533
      H1    -7.82737   -0.93185  -18.49373
       H   -12.05384    9.91445  -12.25031
       O   -12.74160    9.58405  -12.86080
      H1   -12.50979    8.64739  -13.08724
       H    -4.17689    7.08793  -19.53903
       O    -4.25755    6.15238  -19.43811
      H1    -3.83303    6.07394  -18.54162
       H    -3.47933    3.51376  -12.65341
       O    -3.48841    3.54414  -13.64087
      H1    -4.39025    3.81146  -13.91457
       H    -3.22072    6.26890  -13.57561
       O    -2.92585    6.56428  -12.69544
      H1    -3.52735    7.27698  -12.51793
       H    -6.58773    1.12324  -14.57280
       O    -7.23348    1.49082  -15.17025
      H1    -7.03155    0.96803  -15.95425
       H   -10.29293   12.95552  -15.62953
       O   -10.67176   12.56257  -16.42480
      H1   -11.56802   12.84251  -16.27438
       H    -6.51753    3.19336  -14.46113
       O    -6.10700    3.96811  -14.14023
      H1    -6.53515    4.06782  -13.25555
       H    -5.28364    5.83408  -14.63799
       O    -4.43704    6.19509  -15.03105
      H1    -4.74080    7.10652  -15.09066
       H   -14.33399    5.82661  -13.44116
       O   -13.88424    5.10744  -13.94103
      H1   -14.34116    5.15024  -14.81724
       H   -10.82888    7.29221  -15.86932
       O   -10.17435    7.71817  -15.24709
      H1   -10.21751    8.70051  -15.38338
       H    -6.75919    8.86312  -11.02805
       O    -7.42101    9.31607  -10.40491
      H1    -6.89845    9.48644   -9.57283
       H    -7.80924    8.10161   -7.00528
       O    -6.97090    8.13568   -7.51866
      H1    -6.86612    7.24046   -7.82375
       H    -7.17571   11.06751  -11.31513
       O    -7.17277   11.78473  -11.94705
      H1    -6.45776   12.37920  -11.61036
       H    -4.95288    8.75424  -16.68455
       O    -5.16299    8.80414  -15.73074
      H1    -5.58728    9.65667  -15.59018
       H    -8.14721    7.51087  -14.84773
       O    -7.48007    6.95832  -14.43382
      H1    -8.02240    6.25859  -14.04443
       H    -9.13968   -0.56412  -10.55394
       O    -9.89382    0.04726  -10.72794
      H1   -10.48524   -0.57485  -11.20197
       H    -9.72551   -0.66741  -13.45289
       O    -9.03514   -1.37992  -13.57751
      H1    -9.15772   -1.94037  -12.81505
       H    -8.86244   10.82673  -14.46464
       O    -9.77979   10.52134  -14.35491
      H1   -10.17998   11.25301  -14.84811
       H   -11.02275    8.93729  -17.58589
       O   -11.62272    9.50453  -17.06310
      H1   -11.08680   10.34045  -16.92533
       H    -4.93894   12.31996  -17.58584
       O    -5.83993   12.68701  -17.56349
      H1    -6.34057   11.99479  -18.01092
       H    -9.13534    4.03722  -13.33336
       O    -9.02622    4.96746  -13.23036
      H1    -9.86838    5.25188  -13.73132
       H   -10.29903    7.96308  -19.30769
       O    -9.85851    8.58553  -18.73307
      H1    -9.06761    8.11882  -18.47036
       H    -5.75316   -0.40267  -13.76758
       O    -5.30876    0.42636  -13.61087
      H1    -4.63629    0.47928  -14.30953
       H   -12.29349   11.00142   -8.93598
       O   -11.43087   10.55918   -8.72081
      H1   -10.97685   10.76836   -9.54331
       H    -8.48915   14.19695  -10.90424
       O    -9.12635   13.62809  -11.31936
      H1    -8.53042   12.84944  -11.42871
       H    -7.05324    6.36162  -18.06934
       O    -7.35595    6.94024  -17.35343
      H1    -6.91975    6.47848  -16.69536
       H    -6.28641    7.76391  -13.26826
       O    -5.87562    7.95396  -12.37109
      H1    -5.19984    8.60682  -12.49014
       H   -13.18970   10.34096  -14.36093
       O   -13.40273   10.87711  -15.11303
      H1   -13.09278   10.31595  -15.83996
       H    -5.87097    5.25985   -8.16533
       O    -6.73110    5.51731   -8.61480
      H1    -6.50575    5.64570   -9.52461
       H    -9.06169    1.73099  -12.24363
       O    -8.42520    2.27641  -12.73340
      H1    -8.40735    1.74168  -13.50425
       H    -9.81056    2.40506   -8.40555
       O    -9.76378    2.42447   -9.38466
      H1   -10.06683    1.56255   -9.65604
       H    -3.48584    9.71221   -9.16719
       O    -4.32043    9.21935   -9.08193
      H1    -4.88538    9.88927   -8.65034
       H    -6.85656    3.77623  -17.59664
       O    -6.06643    4.35273  -17.65717
      H1    -6.14580    4.63613  -18.59929
       H   -11.29023    7.24886  -13.73290
       O   -11.86618    7.00077  -13.00244
      H1   -12.27398    6.24927  -13.38475
       H    -7.73027    5.26933  -11.83161
       O    -6.84867    5.37721  -11.39542
      H1    -6.50730    6.18958  -11.82606
       H   -11.14358    0.24344  -14.55626
       O   -11.04361    0.63725  -13.68183
      H1   -11.63204    1.44735  -13.67125
       H   -10.73724    3.66844   -9.82554
       O   -11.36134    4.34712  -10.23925
      H1   -10.79289    5.14147  -10.17177
       H    -6.82911   10.90061  -13.61884
       O    -6.74277   10.74412  -14.58680
      H1    -6.56605   11.65421  -14.79312
       H    -2.66093   10.48065  -14.51524
       O    -3.61818   10.76407  -14.59334
      H1    -3.82028    9.98611  -15.15347
       H    -7.21558    8.95608  -17.62879
       O    -7.30887    9.87787  -17.91578
      H1    -8.26579   10.06562  -17.83982
       H   -11.55361    8.73566   -8.51776
       O   -11.90887    7.86014   -8.37269
      H1   -11.69339    7.32313   -9.15907
       H    -8.48185    2.51734  -16.43126
       O    -8.52731    2.91590  -17.30922
      H1    -8.86744    3.81283  -17.13674
       H    -6.87992    3.80043   -8.74633
       O    -7.14242    2.88118   -8.66593
      H1    -8.03753    2.94625   -9.05128
       H    -3.63711    9.96334  -12.75017
       O    -3.86351    9.41779  -11.99693
      H1    -4.16702   10.03915  -11.32370
       H    -3.70940    4.96947  -11.35688
       O    -3.35913    4.21562  -10.91054
      H1    -4.05021    3.62003  -10.76781
       H    -9.72105    5.65337  -18.24464
       O    -9.60265    5.46925  -17.33446
      H1    -8.89501    6.11757  -17.14192
       H    -0.19034    6.85977  -12.00027
       O    -0.50502    7.71407  -12.18290
      H1    -1.43037    7.50934  -12.51253
       H    -4.88937    9.20796  -19.32841
       O    -4.25982    8.88181  -18.66574
      H1    -3.41978    9.28127  -18.94582
       H   -11.88196    6.39896  -17.53299
       O   -12.20860    6.41019  -16.61255
      H1   -13.00445    6.99005  -16.67457
       H    -1.93729    3.82311  -15.67390
       O    -1.59552    2.89748  -15.84180
      H1    -2.37789    2.51775  -16.20687
       H   -12.42990    2.84226  -16.55907
       O   -12.94420    2.61577  -17.33007
      H1   -13.17411    1.71720  -17.07532
       H    -5.56972    1.67782  -11.62794
       O    -5.05169    1.61448  -10.82208
      H1    -5.73276    1.21545  -10.20545
       H    -3.21050    6.02066  -16.33792
       O    -2.65293    5.78245  -17.09134
      H1    -1.85694    6.34634  -16.89006
       H    -4.08873    2.88534  -17.11367
       O    -3.79613    2.07985  -17.60940
      H1    -4.60971    1.95731  -18.12325

