180
frame 10 | Written by MDAnalysis XYZWriter (release 2.4.3)
       H   -14.74943    5.53278   -1.88947
       O   -15.26236    6.34941   -1.61031
      H1   -16.08768    6.04764   -1.31157
       H    -2.32401   10.19971   -2.35706
       O    -2.26020    9.90143   -3.29647
      H1    -2.34167   10.72006   -3.75173
       H    -5.89552    2.66282   -5.60363
       O    -5.81213    3.56828   -5.32758
      H1    -5.23637    4.03873   -5.95225
       H    -4.20410    8.39662    0.95419
       O    -3.76650    7.70826    0.50054
      H1    -3.45877    7.14229    1.22430
       H   -10.61173    8.72315   -2.50086
       O   -11.01280    7.77362   -2.51774
      H1   -11.83389    8.08115   -2.98138
       H    -9.73017    2.34343   -1.78499
       O    -9.92055    1.94583   -0.95325
      H1    -9.00962    1.87964   -0.63932
       H    -3.35300    4.77681   -3.95071
       O    -2.67220    5.38121   -4.25127
      H1    -3.02709    5.61721   -5.08578
       H   -13.00137    3.90849   -1.47242
       O   -12.87819    3.52060   -0.58262
      H1   -13.76232    3.30386   -0.33916
       H    -4.78024    4.67156   -2.19253
       O    -4.53413    3.85338   -2.67584
      H1    -5.15092    3.92523   -3.39261
       H   -12.57882    7.36197   -5.69249
       O   -12.11916    6.56922   -6.09083
      H1   -12.70475    6.37965   -6.87167
       H    -9.90865    9.37729   -7.13947
       O    -9.38481    9.85382   -6.43600
      H1    -9.14525    9.11756   -5.88699
       H    -8.03498    7.61457   -7.40109
       O    -7.36589    7.89579   -8.02141
      H1    -7.26252    7.04061   -8.51060
       H    -6.53369    6.14351   -1.20642
       O    -5.55756    6.10925   -1.57023
      H1    -5.24387    6.79583   -0.91841
       H   -11.83332   11.68893   -1.68285
       O   -11.63682   11.54527   -0.74643
      H1   -12.46611   11.15220   -0.50807
       H    -8.05176   10.97367    1.21747
       O    -7.10824   11.18039    0.93796
      H1    -6.60622   10.99662    1.78344
       H    -3.96236    9.62501    2.44396
       O    -4.88543    9.70583    2.12141
      H1    -5.36583    9.55957    2.95787
       H   -10.51480   10.49829    1.69558
       O    -9.80312   10.97736    1.19108
      H1   -10.37785   11.47341    0.59666
       H    -6.20897    9.76815   -1.93899
       O    -7.09363    9.75371   -1.54363
      H1    -6.93118   10.17286   -0.67150
       H    -4.14442   13.09795   -2.75755
       O    -3.45926   13.17823   -3.36829
      H1    -2.75496   13.36652   -2.77107
       H   -10.57379    6.00060    3.00107
       O    -9.98835    5.22151    3.04869
      H1    -9.75733    4.82745    2.15242
       H   -11.06786   10.54197   -6.50921
       O   -11.92432   10.75386   -6.06342
      H1   -12.57166   10.55351   -6.78337
       H    -1.11136    7.85492   -0.88876
       O    -1.19311    8.26357   -0.03826
      H1    -2.11562    7.87893    0.08348
       H    -3.36477   11.93723   -0.00719
       O    -3.90662   12.54480   -0.49624
      H1    -4.16165   13.17175    0.19966
       H   -14.29824   10.29582   -1.61972
       O   -14.27999   10.25853   -0.65880
      H1   -13.74292    9.49866   -0.52293
       H    -7.94334    9.82433    5.18418
       O    -8.00034    9.64707    4.23433
      H1    -7.56962    8.78243    4.08016
       H    -8.16399    5.43737    2.87539
       O    -7.23891    5.77459    2.84728
      H1    -6.76306    4.97285    2.48404
       H    -7.12129   12.02667   -3.43295
       O    -6.27753   12.50739   -3.40243
      H1    -5.65003   11.76890   -3.48071
       H   -11.20052    5.27864   -4.98319
       O   -11.02273    4.56129   -4.40285
      H1   -10.08285    4.62422   -4.34688
       H   -13.12664   11.39396    1.95203
       O   -12.58136   10.63753    2.08998
      H1   -13.01973    9.95828    1.56045
       H    -6.86281   13.53797   -6.11892
       O    -6.07327   13.95872   -5.76008
      H1    -6.15700   13.67354   -4.84522
       H    -8.29228   14.42904   -1.56356
       O    -9.00379   14.58510   -2.21351
      H1    -9.19349   13.70696   -2.57539
       H    -1.10265    7.69151   -3.45934
       O    -0.94018    6.97445   -2.82364
      H1    -1.57557    6.28100   -3.08702
       H    -5.77479    2.44410   -1.88022
       O    -6.64361    2.04653   -1.71614
      H1    -6.64024    1.97530   -0.74856
       H    -5.88628    4.55557   -8.32216
       O    -6.75222    4.85765   -8.55915
      H1    -6.65679    4.95222   -9.50138
       H   -10.15670    6.97433   -6.18982
       O    -9.26097    7.24867   -6.10769
      H1    -9.03158    7.08115   -5.14200
       H    -9.14428    5.26861   -0.10611
       O    -9.67612    4.66975    0.44996
      H1    -9.78402    3.90125   -0.15159
       H    -3.53148    2.97512   -0.14436
       O    -3.53021    3.25304    0.79666
      H1    -3.03205    4.09683    0.76297
       H    -4.58272   10.03520   -8.62297
       O    -4.77408    9.14999   -9.03366
      H1    -5.61792    8.97924   -8.65101
       H    -4.09845    9.81292   -3.34538
       O    -5.00283   10.00070   -3.49503
      H1    -4.90674    9.72826   -4.42998
       H    -7.87254    3.72794   -2.13516
       O    -8.74397    3.96886   -2.41431
      H1    -8.65726    4.85119   -2.81929
       H    -9.14516   12.21648   -4.98143
       O    -9.06573   12.28773   -4.03902
      H1    -9.56762   11.55125   -3.64285
       H   -10.05199    3.39036   -6.48225
       O   -10.37326    2.52152   -6.86973
      H1   -11.31841    2.73406   -6.72004
       H   -11.09874    9.38322   -9.23708
       O   -11.10352    8.55042   -8.75343
      H1   -10.47978    7.92277   -9.06784
       H    -7.93633    7.12033    0.89719
       O    -7.65746    6.98571    0.00506
      H1    -7.54131    7.90053   -0.34929
       H   -11.42019    8.26998    2.67965
       O   -11.62324    7.33262    2.71989
      H1   -12.14275    7.17128    3.54359
       H   -12.84324    7.42691   -0.39271
       O   -12.40722    8.32082   -0.43047
      H1   -11.79689    8.11571   -1.13995
       H   -13.55787   12.13472   -3.99531
       O   -12.86049   11.61147   -3.53121
      H1   -12.66093   10.98141   -4.17190
       H    -3.52442    4.29937   -7.57976
       O    -4.25578    4.87984   -7.29981
      H1    -3.92166    5.66684   -7.65463
       H    -6.63324    0.83652    1.04528
       O    -7.36141    1.46179    1.01468
      H1    -7.91259    1.06436    1.69818
       H   -12.65269    9.43506   -5.17385
       O   -13.00755    8.69915   -4.60687
      H1   -13.93292    8.90769   -4.58219
       H   -12.55924    6.58234    1.48136
       O   -13.06358    6.03583    0.80601
      H1   -12.31076    5.48134    0.54029
       H    -6.53982   13.18786    0.02473
       O    -6.99120   13.66559   -0.72192
      H1    -6.42471   13.37564   -1.52701
       H   -12.59015    4.48415   -3.63689
       O   -13.31043    4.77450   -2.99864
      H1   -14.01398    4.18731   -3.29384
       H    -9.53437    7.08984   -2.89469
       O    -8.63898    6.85154   -3.12717
      H1    -8.16874    7.42247   -2.46884
       H    -7.64875   10.42188   -7.10687
       O    -7.09954   10.90757   -7.67186
      H1    -7.81385   11.36495   -8.17356
       H   -10.08602   10.58494   -1.43870
       O    -9.73719   10.28630   -2.30500
      H1    -8.79561   10.27763   -1.97754
       H    -7.71480    3.96405   -5.29779
       O    -8.50263    4.37423   -5.68848
      H1    -8.13212    5.20238   -6.09284
       H    -6.38488    2.79713    1.94829
       O    -5.74898    3.48310    2.35088
      H1    -4.98096    3.50437    1.76109
       H   -11.90420   14.14344   -4.65577
       O   -11.52554   13.57211   -5.34828
      H1   -11.77993   12.69636   -5.08063
       H    -1.78740    8.46226   -5.27354
       O    -0.87797    8.47266   -5.56935
      H1    -0.48568    9.26351   -5.16072

