180
frame 0 | Written by MDAnalysis XYZWriter (release 2.4.3)
       H     6.97636    3.88060   17.11847
       O     6.33991    4.56359   16.85638
      H1     5.87374    4.76205   17.71094
       H    11.62364    2.78231    8.97136
       O    11.60015    3.26996    8.10718
      H1    12.27705    2.84940    7.55364
       H     4.52416    4.73678   12.36447
       O     4.77920    4.09314   11.70218
      H1     4.39055    3.30714   12.07741
       H     5.55583    8.66749   14.77563
       O     5.63453    7.96194   15.43357
      H1     5.54419    7.12344   14.94698
       H    14.24443    1.73227   13.02263
       O    14.66819    0.89504   13.34584
      H1    15.47938    1.14342   13.84292
       H    15.74343    3.03551    8.84827
       O    16.36888    2.76927    9.59758
      H1    16.55555    1.80369    9.45045
       H     7.14634    2.50770   15.46593
       O     7.92303    2.86439   15.00543
      H1     7.66372    3.00839   14.06936
       H    10.54473   10.51309   11.81305
       O     9.73330   10.35289   12.33996
      H1    10.02467    9.49345   12.71913
       H    12.94611    2.40289   10.60675
       O    12.01614    2.11985   10.49804
      H1    11.98609    1.21323   10.88581
       H    14.80058    6.74736   11.78603
       O    15.00750    6.28987   10.91197
      H1    14.65584    5.38051   11.20436
       H     6.74112    3.30508   11.88436
       O     7.61258    2.98007   12.27337
      H1     7.73910    2.19744   11.76172
       H    12.11617    8.69780    7.76960
       O    11.54322    8.34338    8.44627
      H1    11.11991    7.57378    8.09452
       H    14.49603   -0.43013    7.91860
       O    15.39885   -0.38914    7.59335
      H1    15.90079   -0.17785    8.39771
       H     8.96221   -0.00207   12.33278
       O     9.05369   -0.99193   12.39691
      H1     8.98189   -1.22440   13.34036
       H     4.81776    4.40822    9.91234
       O     4.81484    4.76261    8.99999
      H1     4.07924    4.21477    8.61856
       H    13.48194    2.28387   16.90866
       O    12.87469    2.49025   16.16582
      H1    12.39580    3.23767   16.57725
       H    11.65852    8.87606   13.95230
       O    10.88439    8.36208   13.89562
      H1    11.15861    7.42258   14.00763
       H    14.29035    4.23470    6.77103
       O    14.28964    3.59663    7.49897
      H1    13.58384    4.03719    8.03339
       H    10.68865   -1.75063    6.04047
       O    10.41561   -1.64338    6.92298
      H1     9.54940   -1.28354    6.73898
       H     6.63332   -1.67283   11.39754
       O     6.25345   -1.78145   10.53954
      H1     6.52561   -2.72014   10.39590
       H    11.35586   -0.81274   11.80895
       O    11.69839   -0.79891   10.91682
      H1    12.54891   -1.12094   11.24273
       H    13.30857    8.78771    9.82762
       O    13.02098    8.87002   10.73247
      H1    12.17715    8.29802   10.72333
       H     7.32529    8.41903   13.35752
       O     7.92422    7.67887   13.15672
      H1     8.51266    7.78485   13.88524
       H     9.30108    3.69639   11.14074
       O    10.12810    4.11327   10.85422
      H1    10.80856    3.41927   10.78875
       H    12.35097    6.64579    8.63571
       O    13.14337    6.06177    8.65993
      H1    13.68728    6.44483    9.42686
       H    14.62723    7.76795   13.61957
       O    13.90534    7.30945   13.19097
      H1    13.48769    8.05571   12.71130
       H    14.58714   -0.40378   12.20647
       O    14.38077   -1.14134   11.61099
      H1    15.06390   -1.80410   11.92766
       H    14.59397    3.64250   12.54784
       O    14.48534    3.53678   11.53103
      H1    15.39555    3.32929   11.30073
       H     6.34980    8.64475    9.25904
       O     5.69946    9.23064    8.91218
      H1     4.94460    9.32120    9.61671
       H    11.62952    4.97435    4.84509
       O    11.60257    4.23424    4.21854
      H1    11.73088    3.40977    4.75293
       H    11.54556    0.31697   14.51936
       O    12.38079   -0.08100   14.21399
      H1    13.08350    0.52056   14.49297
       H     9.36501    5.67857    7.70750
       O    10.19799    5.51061    7.29102
      H1    10.61318    4.90874    7.88610
       H    13.16553    8.12919    5.64391
       O    13.58773    8.71370    6.27920
      H1    14.05420    8.09408    6.80490
       H     5.43714    1.79599    4.83707
       O     5.60935    2.21723    5.68665
      H1     6.46486    1.91194    6.03054
       H    12.34159   -0.69507    7.43979
       O    12.76666   -0.01365    7.94896
      H1    12.45355   -0.16518    8.81793
       H     9.07642    1.63448    9.76577
       O     8.63177    1.19269   10.51107
      H1     8.09194    0.51497   10.08101
       H     7.87033   10.04683   15.29788
       O     8.08051    9.14881   15.72784
      H1     7.48201    8.44557   15.46112
       H     5.04901    0.78591   13.02865
       O     4.25213    1.19735   12.59737
      H1     4.11469    0.58792   11.85130
       H     8.86629    4.60739   15.00414
       O     9.49445    5.24714   15.23126
      H1     8.94471    6.02941   15.08291
       H    15.27574    6.70955    6.54410
       O    15.63570    7.23589    7.33680
      H1    15.19214    6.78504    8.03851
       H    11.08221   -2.18186    9.74864
       O    11.10939   -2.89703    9.08879
      H1    10.95416   -2.48508    8.25939
       H    11.29417    5.34065   18.29553
       O    11.35984    4.67514   17.53694
      H1    10.73272    5.06146   16.82198
       H     4.81845    7.87306    8.24925
       O     3.92503    7.53562    8.06844
      H1     4.18412    6.59819    7.98975
       H    13.97727    4.65446   14.37255
       O    14.56216    3.85868   14.26837
      H1    13.90540    3.10905   14.53624
       H    11.06905    6.59019    5.82618
       O    11.74984    6.61035    5.14403
      H1    11.22383    7.01503    4.35535
       H     9.69653    3.80019    5.73678
       O     9.78141    2.92989    6.12796
      H1    10.27879    3.15564    6.93101
       H    10.66318    6.37545   11.11711
       O    10.82188    7.33097   11.16233
      H1    10.01815    7.67553   10.75182
       H    17.26923    4.39109   10.09773
       O    17.46242    5.35079   10.22228
      H1    16.66738    5.78134   10.60665
       H     8.80568   -1.16175   15.28496
       O     8.35111   -1.98919   15.09561
      H1     8.48795   -2.29112   15.99288
       H     7.92412    6.74498   10.54735
       O     7.89858    7.69005   10.29653
      H1     7.79175    8.17271   11.10646
       H     6.35764    4.99251   15.19465
       O     6.14172    5.53713   14.39149
      H1     6.97234    5.54131   13.84435
       H     8.03917    7.79855    7.50184
       O     7.69883    6.97527    7.13544
      H1     7.56479    7.25710    6.23939
       H    12.68148    1.44625    5.87890
       O    13.00232    1.76821    5.02308
      H1    13.07064    0.98167    4.45404
       H     5.54581    3.87076    5.58900
       O     5.79721    4.81224    5.33581
      H1     6.74272    4.76042    5.21593
       H     7.46607    5.74696    8.57151
       O     7.92088    5.21847    9.24471
      H1     7.33980    4.47196    9.27668
       H     8.71184    5.86440    4.79996
       O     8.50198    4.91798    4.64083
      H1     8.33067    4.84735    3.73580
       H     9.39989    9.71974    6.62180
       O     8.84606    9.59490    7.46942
      H1     9.28871   10.27813    7.96583
       H     9.49098    0.96987   16.50552
       O     9.51172    0.64294   15.59251
      H1     9.05336    1.38407   15.11778
       H    12.32594   12.07887   10.97744
       O    11.64930   11.37333   10.73164
      H1    12.27292   10.59943   10.51900
       H     8.92945    1.14237    6.33745
       O     8.24197    0.44530    6.26996
      H1     7.95380    0.38740    5.30904

