180
frame 7 | Written by MDAnalysis XYZWriter (release 2.4.3)
       H    -8.78157   10.51539  -13.17231
       O    -9.56845   10.92310  -12.78456
      H1    -9.40450   11.87960  -12.82769
       H   -16.23042    6.80804   -3.52589
       O   -16.63347    5.96044   -3.18234
      H1   -15.90144    5.52519   -2.82672
       H   -13.09420    9.66402  -11.40971
       O   -13.03611    9.30866  -10.48649
      H1   -12.08471    9.18146  -10.35989
       H   -12.23182    3.92680  -10.71045
       O   -12.98200    3.53957  -11.19530
      H1   -13.69889    4.17186  -11.04494
       H    -9.79308    7.70449  -10.38573
       O   -10.07427    6.81358  -10.63031
      H1    -9.89066    6.72813  -11.59482
       H   -18.55067   11.37935   -6.65963
       O   -17.84676   12.00151   -6.98506
      H1   -18.10128   12.81133   -6.48442
       H   -12.52214    4.60065   -8.60698
       O   -13.29526    4.82874   -8.06017
      H1   -13.55926    3.91441   -7.76827
       H   -17.90993    2.73365   -7.77404
       O   -18.43059    2.57874   -8.55449
      H1   -18.53302    1.62962   -8.51028
       H   -16.44810   16.62732   -4.31852
       O   -16.00488   15.81255   -3.99018
      H1   -16.83527   15.33199   -3.78726
       H   -11.92534    9.76750  -13.48094
       O   -12.81171    9.82798  -13.19068
      H1   -13.05340    8.87768  -13.27440
       H   -15.78239    3.22734  -13.60577
       O   -16.06161    2.40114  -13.18177
      H1   -16.83308    2.63944  -12.62617
       H   -11.28276    7.95146   -2.64237
       O   -11.78241    7.10181   -2.69091
      H1   -12.28852    7.28719   -3.53996
       H   -18.30420   14.48719   -8.72289
       O   -19.23877   14.74889   -8.77713
      H1   -19.22383   15.70798   -8.93648
       H   -14.91114   15.32755  -12.56343
       O   -14.00807   15.45393  -12.21044
      H1   -13.86180   16.34413  -12.36547
       H   -13.30825   13.48728  -11.40534
       O   -13.12302   12.56030  -11.37788
      H1   -12.54734   12.35673  -12.12105
       H   -15.89508   18.69709  -11.03769
       O   -14.99867   18.35808  -10.89821
      H1   -15.25980   17.52318  -10.48420
       H   -12.77805    6.26869   -5.59192
       O   -12.42707    5.37118   -5.58024
      H1   -12.73916    5.07117   -6.45802
       H   -17.06609    5.87458  -14.74547
       O   -17.81700    5.82024  -15.39340
      H1   -18.44296    5.82692  -14.63362
       H   -14.96424    5.76119  -13.34295
       O   -15.70092    5.35699  -13.81115
      H1   -15.32544    5.01180  -14.65145
       H   -18.85057    3.06532  -12.01367
       O   -18.32683    2.36668  -11.56152
      H1   -18.38905    2.80929  -10.71212
       H   -15.01802   11.17296   -6.73435
       O   -15.25006   11.29054   -5.82022
      H1   -16.22221   11.52950   -5.84556
       H   -15.05750   14.33366   -6.99415
       O   -14.59839   14.98689   -6.33274
      H1   -15.10965   14.91567   -5.49774
       H   -17.79428   17.38163   -6.13353
       O   -17.06694   17.05371   -6.68148
      H1   -16.44978   17.80332   -6.65261
       H   -14.40358    6.47936   -8.27364
       O   -14.90686    7.19572   -7.68705
      H1   -15.06064    7.91323   -8.32919
       H   -11.51884   10.42067   -7.08674
       O   -12.29147    9.91220   -6.85308
      H1   -12.85476   10.11563   -7.59512
       H   -14.45453   10.53055   -1.38033
       O   -15.21429   11.01352   -1.75101
      H1   -15.38153   11.52586   -0.95914
       H   -15.06364   10.54661  -14.74854
       O   -15.67789    9.75760  -14.80513
      H1   -15.83044    9.55072  -13.87565
       H   -17.02156    4.67209   -6.95725
       O   -17.25355    5.62630   -7.07758
      H1   -16.54070    5.98492   -7.62623
       H   -16.08002    8.14890   -4.96420
       O   -15.68367    8.30576   -4.13310
      H1   -16.23036    9.02381   -3.87824
       H   -11.78874   11.95929  -10.09794
       O   -11.40835   11.98723   -9.22857
      H1   -10.44987   12.05661   -9.40702
       H   -16.28473   11.58540   -3.53296
       O   -17.13702   11.79503   -3.99788
      H1   -17.84423   11.40961   -3.41826
       H   -19.68332    5.97303  -11.03925
       O   -19.11399    6.73283  -11.11848
      H1   -19.58510    7.37744  -10.53362
       H   -18.84690   14.76097   -6.68168
       O   -19.29022   14.51914   -5.84895
      H1   -20.04654   14.04242   -6.23266
       H   -14.85757    7.66008  -12.01152
       O   -13.97981    7.30338  -12.23597
      H1   -13.45935    7.86085  -11.63603
       H   -15.52484    2.63072   -6.79387
       O   -16.45763    2.92716   -6.56103
      H1   -16.34507    2.89386   -5.59231
       H   -19.05169   15.39794  -14.11792
       O   -18.97468   15.31765  -13.13419
      H1   -19.72011   14.71836  -12.96277
       H   -13.18743   10.89864  -14.37296
       O   -13.34533   11.51961  -15.04189
      H1   -12.95886   11.05242  -15.80338
       H   -10.30262    3.96425   -9.58026
       O   -11.12807    4.50997   -9.63693
      H1   -10.73767    5.34335   -9.98222
       H   -18.54543   16.87958  -12.25270
       O   -19.11770   17.57362  -11.84047
      H1   -19.97746   17.26919  -12.04520
       H   -18.54718   12.06393  -14.33211
       O   -17.93294   11.70259  -13.63894
      H1   -17.96115   10.72549  -13.73467
       H   -10.40173    9.88884   -8.76331
       O    -9.96100    9.18504   -9.25274
      H1    -9.46079    9.75161   -9.86264
       H   -14.44146   12.84502   -8.96904
       O   -14.61665   13.74978   -8.79295
      H1   -13.70957   14.06118   -8.59742
       H   -13.71694   11.30708   -4.69322
       O   -12.87535   11.59393   -4.20808
      H1   -12.19454   10.98355   -4.48802
       H   -12.34542   14.11291   -6.98023
       O   -11.99282   14.27475   -7.85149
      H1   -11.83726   13.39992   -8.17887
       H   -18.44921    8.43336   -2.97731
       O   -18.64425    8.80028   -3.84672
      H1   -19.21483    9.52612   -3.56375
       H   -15.85866   15.36296  -10.03537
       O   -16.30875   16.02770   -9.49383
      H1   -15.74941   15.84716   -8.69313
       H   -18.31496   10.78833   -9.67759
       O   -17.72156   11.55212   -9.61612
      H1   -17.67688   11.79272   -8.62252
       H   -17.41607   11.44261  -17.17030
       O   -17.62642   10.62847  -16.71794
      H1   -16.96760   10.45069  -15.99378
       H   -16.36147   11.34458  -12.43903
       O   -15.54959   10.82643  -12.21348
      H1   -15.29917   11.17816  -11.34850
       H   -17.31480   14.69816  -13.38544
       O   -16.37845   14.47740  -13.26252
      H1   -16.52453   13.50875  -13.38395
       H   -12.80721    8.45953   -5.68332
       O   -13.24352    7.86145   -4.99738
      H1   -14.14304    8.25714   -4.79330
       H   -13.72312   10.42334   -9.40345
       O   -14.26783   10.85790   -8.72879
      H1   -15.12173   10.55350   -8.94281
       H   -14.03283   17.76760   -7.53577
       O   -13.28854   17.16471   -7.27198
      H1   -13.66578   16.31644   -6.92675
       H   -17.95571   17.13458   -9.19894
       O   -18.80435   17.50106   -8.92274
      H1   -19.20148   17.77947   -9.79526
       H   -17.26590    8.40091  -11.95559
       O   -16.61401    7.73196  -11.70596
      H1   -17.18807    6.92523  -11.57323
       H   -17.39901   13.56883   -3.38018
       O   -17.75702   14.21627   -2.78382
      H1   -18.73528   14.18839   -2.99143
       H   -16.57254    8.78445  -10.00376
       O   -16.35233    9.29841   -9.23837
      H1   -16.90445   10.07592   -9.42067
       H   -19.24134    5.52803   -3.53735
       O   -19.02588    5.03118   -4.35684
      H1   -18.09302    5.33259   -4.46432
       H   -15.82352   14.98392  -15.10280
       O   -15.28572   15.39288  -15.75759
      H1   -15.88820   16.19152  -15.98444
       H   -12.00559   14.53143   -4.44676
       O   -11.51171   13.85158   -4.95387
      H1   -12.17763   13.09733   -4.97254

