180
frame 11 | Written by MDAnalysis XYZWriter (release 2.4.3)
       H    10.31655  -14.96636   16.78909
       O     9.64530  -14.84602   16.09710
      H1     9.29462  -13.97921   16.33497
       H     4.41530  -11.22811   11.27566
       O     4.07505  -12.09327   11.40015
      H1     4.06804  -12.49131   10.50540
       H     8.65626   -9.25231    8.59621
       O     9.10751   -8.50943    8.26258
      H1     8.82049   -7.77748    8.84045
       H    10.06750   -4.04780   14.25535
       O     9.90778   -4.77889   14.81890
      H1    10.39589   -4.39734   15.60375
       H    11.13659   -5.82527   14.15389
       O    11.99218   -6.25661   13.84089
      H1    12.06257   -6.82360   14.61862
       H     7.95790  -10.28095   10.55433
       O     7.82488  -10.41686    9.59493
      H1     7.98288  -11.39595    9.61862
       H    18.66794   -8.35004   11.64759
       O    18.91990   -8.33676   10.71168
      H1    18.08961   -8.24500   10.24359
       H    16.50990  -13.42166   11.10213
       O    16.95928  -14.25704   11.28691
      H1    16.84720  -14.71254   10.45886
       H    14.12753  -12.35575   17.67759
       O    13.44581  -12.33500   16.97957
      H1    13.99460  -12.23312   16.16423
       H    10.59976   -9.34729    8.52160
       O    11.40378   -9.78955    8.16923
      H1    11.84863  -10.09528    8.98518
       H    13.84856  -11.83743   12.21903
       O    14.23023  -11.77793   13.05740
      H1    14.24293  -12.75837   13.26479
       H     4.61346   -8.71882   12.31357
       O     5.29257   -9.42225   12.49582
      H1     5.85219   -8.84551   13.09535
       H     5.95940   -8.22621   16.67484
       O     6.73885   -8.55977   16.22436
      H1     6.61939   -9.45783   16.54852
       H     8.61539   -8.25373   16.40293
       O     9.36798   -7.75525   16.69166
      H1     8.82929   -7.23480   17.34445
       H     8.13730   -4.81617   15.55105
       O     7.39226   -4.69342   16.17158
      H1     7.81887   -4.85730   17.05076
       H    11.34479  -14.89070   11.64117
       O    12.14342  -15.06655   12.15111
      H1    12.85163  -14.69686   11.59588
       H    10.55613   -5.49121   11.40131
       O     9.81419   -6.05157   11.70416
      H1    10.19738   -6.60426   12.35246
       H    12.77053   -9.18866    6.53247
       O    13.65087   -9.32825    6.23033
      H1    13.49616   -9.25819    5.25657
       H    11.16464   -3.87260    8.71193
       O    10.87806   -4.36039    9.49725
      H1    10.03419   -4.73508    9.11311
       H    13.80421  -15.16564   13.82640
       O    14.05397  -14.36488   14.26874
      H1    13.13714  -14.01575   14.34088
       H    14.29041   -7.88026   13.55711
       O    13.82071   -7.87484   12.68820
      H1    13.07889   -7.36172   13.02493
       H     9.57008   -9.34215    5.42472
       O     9.71811  -10.25710    5.19215
      H1    10.59915  -10.30394    4.80839
       H    16.88296   -8.40816   13.68200
       O    17.80858   -8.53490   13.37371
      H1    17.97173   -9.49177   13.61343
       H     8.41943  -10.55816   13.01771
       O     8.07406   -9.72795   12.52687
      H1     7.12431  -10.00400   12.45129
       H     9.96954  -12.74135   13.99379
       O    10.90713  -12.99439   14.04969
      H1    11.13445  -13.28780   13.18105
       H     8.89564  -11.70880   17.05806
       O     8.40646  -12.25081   16.41023
      H1     7.55016  -12.06831   16.74993
       H    13.35675   -4.49798   13.22617
       O    14.09503   -4.38646   13.82498
      H1    14.71248   -3.91593   13.35079
       H    17.49396   -5.06232   11.62849
       O    17.13076   -4.83856   10.74726
      H1    16.90380   -5.69752   10.40630
       H    13.53953  -14.36615    9.37904
       O    13.66805  -13.95734   10.23982
      H1    13.33824  -13.04068   10.19392
       H    10.20798  -12.80522    6.88174
       O    10.86987  -12.43733    7.45166
      H1    10.69851  -11.48231    7.48816
       H    16.30413  -11.61629   15.19637
       O    16.04786  -11.46576   16.10970
      H1    16.15170  -10.58043   16.29436
       H     9.26934  -15.44110   10.20858
       O     9.68959  -15.16356   11.08168
      H1     9.43587  -15.93269   11.64496
       H    16.59557  -11.38722   12.59988
       O    17.38088  -11.30033   13.15024
      H1    17.93195  -11.94351   12.70654
       H    13.90243   -8.13925    9.66014
       O    14.29099   -8.94179   10.12531
      H1    14.37137   -8.60397   11.03398
       H    11.21769   -8.03809   16.02991
       O    12.14108   -8.18721   15.75752
      H1    11.99229   -8.96681   15.10096
       H     8.46405  -12.31243   14.75007
       O     8.36108  -12.30118   13.73277
      H1     7.62070  -12.96122   13.63936
       H     8.06297   -6.21578    9.38764
       O     7.91051   -6.93313   10.05203
      H1     8.56208   -6.60682   10.70977
       H    11.27083   -9.41923   12.06495
       O    10.65091   -9.38729   11.33413
      H1     9.78819   -9.64912   11.62525
       H    12.60444   -5.98377    9.01573
       O    13.06782   -6.45406    9.67660
      H1    13.26966   -5.67367   10.23036
       H     8.18917   -4.12404    8.02910
       O     8.52974   -5.07255    8.08390
      H1     9.17944   -4.97607    7.31688
       H    15.67919   -8.17484    9.54101
       O    16.52677   -7.72500    9.40031
      H1    16.72048   -7.92239    8.46284
       H    16.85686  -11.71849    9.18499
       O    16.12418  -11.71890    9.83948
      H1    15.89447  -10.79970    9.87548
       H    11.14155   -6.18629    6.50340
       O    11.73346   -6.98049    6.65687
      H1    10.95421   -7.47854    6.92478
       H    12.32489   -9.20622   17.48539
       O    12.52023   -9.94185   18.00366
      H1    12.67729  -10.70294   17.40282
       H     9.62603  -13.45612    9.96700
       O     9.10408  -12.91412    9.36194
      H1     9.73234  -12.83464    8.62742
       H    13.72781  -11.16867    6.59741
       O    13.62126  -12.13609    6.44251
      H1    12.67880  -12.28227    6.66645
       H    13.04790  -10.55453   10.60027
       O    12.66570  -11.45988   10.77583
      H1    11.72400  -11.29119   10.83510
       H    14.94441   -5.95386   14.23182
       O    15.21551   -6.72731   14.80289
      H1    14.67639   -6.74127   15.60033
       H    10.96220  -10.87617   18.20346
       O    10.14422  -11.46824   18.31658
      H1    10.63370  -12.29698   18.53947
       H     6.80343   -5.82040   13.30947
       O     6.49534   -4.90487   13.22240
      H1     6.35667   -4.86654   12.26397
       H    12.78388  -10.64557   13.78719
       O    12.00797  -10.42203   14.29355
      H1    11.56898  -11.26911   14.21768
       H     6.93948   -8.70685    5.59007
       O     7.60699   -7.96861    5.56291
      H1     8.02514   -8.00126    6.42519
       H    10.44474   -2.40118   13.40593
       O    10.80208   -3.06472   12.76327
      H1    10.52165   -2.83132   11.86551
       H    12.31116  -15.60933   16.60446
       O    12.40915  -14.95713   17.31601
      H1    12.76265  -14.19766   16.82849
       H    15.49528   -7.69034    4.86499
       O    15.41366   -7.28376    5.74178
      H1    14.72154   -7.78393    6.13782
       H     6.42912   -6.19802   10.32203
       O     5.61048   -5.64663   10.20188
      H1     4.94745   -6.30685   10.02199
       H     7.67288   -8.34139   13.69884
       O     7.07538   -7.56857   13.75773
      H1     6.83800   -7.60175   14.73794
       H    15.03869   -3.79383   10.21872
       O    14.11653   -3.78959    9.95012
      H1    13.60335   -3.16649   10.51207
       H     9.72585  -15.55980   14.37617
       O     9.53964  -16.25727   13.75649
      H1     8.57140  -16.46505   13.69113
       H     4.93816   -9.73335    9.12602
       O     5.52201  -10.04044    8.39489
      H1     6.42201  -10.24571    8.81216

