180
frame 6 | Written by MDAnalysis XYZWriter (release 2.4.3)
       H     6.00161    5.33790  -18.81845
       O     5.05167    5.14294  -18.83730
      H1     4.63040    5.88938  -18.37953
       H     3.49250    7.97809  -12.81602
       O     4.16255    8.22032  -12.15837
      H1     4.22030    9.18319  -12.28203
       H     1.32302    3.70324   -8.73505
       O     1.13425    4.63982   -8.35158
      H1     1.18375    5.02680   -9.22014
       H    -1.42914    0.15712  -13.46931
       O    -2.36614    0.34162  -13.22343
      H1    -2.64733    0.96442  -13.90155
       H    -1.84384   -2.78558  -13.36590
       O    -2.15889   -2.24264  -14.12788
      H1    -2.32500   -1.36150  -13.72826
       H    -3.08793    1.94744  -17.77791
       O    -2.39767    1.82918  -17.13095
      H1    -2.09558    0.95242  -17.38274
       H    -7.41901    0.90423  -18.19948
       O    -7.63046    1.06824  -17.28288
      H1    -8.03719    0.16470  -17.10557
       H     2.93530    1.99493   -8.76351
       O     2.39525    2.32059   -9.47982
      H1     2.18605    1.45838   -9.88455
       H    -4.50228    6.38604  -18.81498
       O    -4.17069    5.43970  -18.81217
      H1    -3.48848    5.57718  -18.16890
       H    -4.16632    5.14646  -12.98163
       O    -3.99501    4.74729  -13.92449
      H1    -4.86500    4.96374  -14.28708
       H    -3.20754    8.39535  -12.65589
       O    -2.28209    8.47354  -12.28053
      H1    -2.18949    9.40301  -12.14183
       H    -5.43416    1.52584  -14.44425
       O    -6.07183    0.86150  -14.72209
      H1    -6.27090    1.08421  -15.67375
       H     3.75613    2.99110  -11.27861
       O     4.61285    2.99624  -11.61126
      H1     4.83189    3.94105  -11.81676
       H    -6.15606    4.79350  -15.53910
       O    -6.26539    5.49025  -14.85039
      H1    -7.01125    5.17825  -14.31317
       H     2.34859    1.18886  -12.91955
       O     3.22397    0.68892  -12.97232
      H1     3.73707    1.38994  -12.49115
       H    -5.73755   -1.86588  -13.87265
       O    -6.48255   -1.74958  -14.52215
      H1    -6.24985   -0.80056  -14.65350
       H     0.24530    5.22790  -11.52827
       O     1.15941    5.39779  -11.23355
      H1     1.64127    4.63820  -11.53592
       H    -3.32813    8.06194  -15.60025
       O    -4.12175    8.61741  -15.30138
      H1    -4.95755    8.23177  -15.62626
       H    -4.64314   -1.37250  -15.85767
       O    -4.33486   -1.51118  -16.72994
      H1    -5.08157   -1.80457  -17.21547
       H     0.97177    8.23069   -9.40949
       O     0.05468    8.17949   -9.68184
      H1    -0.02546    7.32997  -10.16339
       H    -2.99603    4.64329  -10.47409
       O    -3.24907    3.70450  -10.31290
      H1    -2.59726    3.34007   -9.71065
       H     0.55316    2.46793  -12.08147
       O     1.48092    2.66407  -12.35644
      H1     1.43306    3.20520  -13.21084
       H    -1.91896    1.48621  -12.06395
       O    -1.41047    2.16262  -11.56753
      H1    -2.13951    2.77718  -11.48742
       H     2.30377   -0.50571   -9.66306
       O     1.53055   -0.46162  -10.21512
      H1     1.46134   -1.26842  -10.65950
       H     2.27941    3.24430  -18.29601
       O     1.93994    3.50393  -17.39579
      H1     1.17644    4.04219  -17.64726
       H    -7.37518    8.19693  -15.00213
       O    -6.72784    7.95868  -15.68569
      H1    -6.82378    6.99067  -15.60449
       H     5.05223    1.70014  -17.43917
       O     4.43096    1.22573  -17.96918
      H1     3.89276    0.85856  -17.23871
       H     1.26473    9.10497  -12.36073
       O     1.16252    9.97357  -11.91639
      H1     0.62620    9.70812  -11.15845
       H     2.09954    0.76240  -16.15072
       O     2.84727    0.35543  -15.69494
      H1     2.71305    0.66723  -14.78721
       H    -0.67042   -4.36561  -16.45821
       O    -0.90457   -4.36692  -15.50264
      H1    -1.23305   -3.49903  -15.35513
       H     4.31713    7.03713  -15.71108
       O     3.35637    6.89488  -15.89497
      H1     2.94030    7.62896  -15.38351
       H    -1.18108   -1.38428  -17.42937
       O    -1.54036   -0.73018  -16.89725
      H1    -2.48441   -0.86133  -16.87284
       H    -3.35028    2.22522  -15.46461
       O    -3.69639    2.17218  -14.55496
      H1    -3.51208    3.10866  -14.26658
       H     6.59145    6.53391  -15.21534
       O     5.96611    7.21581  -15.47775
      H1     6.13158    7.27659  -16.44297
       H    -0.11854    7.13957  -18.64313
       O     0.39541    6.94198  -17.87035
      H1     0.90678    7.76878  -17.77984
       H     2.24948    9.90730  -15.66036
       O     3.02465    9.49962  -15.30435
      H1     3.65051   10.24982  -15.55727
       H     2.25672    4.12963  -15.66743
       O     2.38989    4.52034  -14.78408
      H1     2.68632    5.43089  -14.94378
       H    -4.76626    8.79236  -13.69877
       O    -5.04960    8.66368  -12.74226
      H1    -4.71709    9.40935  -12.32739
       H    -2.60382   -4.39822  -15.86005
       O    -3.27961   -4.09427  -16.49237
      H1    -3.49974   -3.16049  -16.23266
       H     5.62161    4.39829  -15.59133
       O     5.12345    3.58038  -15.59269
      H1     4.26278    3.88795  -15.31603
       H    -2.41978   -2.54776  -18.55860
       O    -1.49572   -2.84853  -18.63717
      H1    -1.28083   -2.63036  -19.55912
       H    -8.28405    1.44743  -12.67516
       O    -8.32351    1.42184  -13.59861
      H1    -7.39675    1.25376  -13.81918
       H    -0.42054   11.09449  -15.10636
       O    -0.75489   10.37864  -14.53063
      H1    -0.05054   10.40759  -13.87466
       H    -6.72946    4.25341  -17.64177
       O    -5.82337    3.98715  -17.29968
      H1    -5.24592    4.65039  -17.68209
       H    -6.27947    5.64838  -12.18425
       O    -5.43274    5.97023  -11.88657
      H1    -5.48367    6.87322  -12.22274
       H    -0.58790    7.73394  -16.58047
       O    -1.19137    7.70225  -15.84029
      H1    -0.91136    8.51655  -15.42090
       H     6.48274    2.34179  -15.84949
       O     6.93236    1.70323  -16.43443
      H1     7.04531    0.96878  -15.79615
       H     5.32135    6.70612  -12.86587
       O     5.75063    5.87074  -12.65926
      H1     6.02638    5.92183  -11.72804
       H     1.70549    9.93983  -18.26776
       O     0.98028    9.52401  -17.73658
      H1     0.19084   10.07019  -17.97593
       H    -2.20659    7.07409  -11.27207
       O    -2.33669    6.25398  -10.70504
      H1    -2.39989    6.68012   -9.79650
       H     1.80914    6.78066  -12.13564
       O     1.67459    7.35156  -12.88585
      H1     0.89705    6.97220  -13.28107
       H    -5.71240    8.24790  -18.68604
       O    -4.79581    8.11644  -18.67989
      H1    -4.42638    8.75730  -19.40954
       H     0.81830    5.34328  -14.65622
       O     0.02405    5.71626  -14.23742
      H1    -0.21858    6.33633  -14.93026
       H    -1.11327    4.55460  -15.67452
       O    -0.61027    3.80788  -16.06254
      H1    -1.27270    3.52202  -16.63638
       H     3.72424   -1.30840  -16.58485
       O     4.00617   -1.97441  -17.23465
      H1     3.49669   -2.80073  -17.03909
       H    -4.66401    2.90696  -11.33641
       O    -5.16842    2.19491  -11.69104
      H1    -6.03206    2.26554  -11.32762
       H    -0.15710    2.05851  -15.54235
       O     0.15176    1.15028  -15.18404
      H1    -0.29749    0.56973  -15.80294
       H    -3.27991    5.41775  -15.36905
       O    -2.94912    5.59144  -16.31000
      H1    -2.37544    6.35806  -16.00672
       H    -5.31831    2.51650  -18.39658
       O    -4.93928    1.64799  -18.64868
      H1    -5.35065    1.50519  -19.50550
       H     1.87712   -4.02942  -14.57404
       O     2.11642   -3.07975  -14.36381
      H1     1.47522   -2.59556  -14.85494

