180
frame 8 | Written by MDAnalysis XYZWriter (release 2.4.3)
       H    13.69148  -18.69318   -3.77978
       O    13.28899  -18.37262   -4.60346
      H1    13.40858  -19.17965   -5.20157
       H    16.48985  -17.44634    3.76702
       O    16.22209  -17.28883    2.85176
      H1    15.36147  -17.61311    2.86572
       H     8.15672  -16.24778    4.71149
       O     8.43948  -15.46125    5.14974
      H1     9.35434  -15.40885    4.91876
       H    11.36135  -13.88631   -4.26979
       O    10.51404  -13.79841   -4.76127
      H1    10.65548  -12.94575   -5.15183
       H    16.28592  -17.51381   -2.43957
       O    16.48067  -16.57129   -2.64654
      H1    17.47501  -16.57169   -2.32667
       H    12.58004  -14.90520   -1.86714
       O    12.41912  -15.50361   -1.13878
      H1    11.89767  -16.11545   -1.64046
       H     7.09328  -13.14050    2.33937
       O     7.82872  -13.19178    1.58124
      H1     8.43630  -12.53596    1.98999
       H    10.50969  -17.87936    7.03551
       O     9.57949  -17.69462    7.10261
      H1     9.45422  -16.94374    6.54539
       H    16.03976  -14.01327    8.15340
       O    16.13794  -14.87279    7.71905
      H1    15.33674  -14.97001    7.20105
       H    13.40385  -12.33460   -6.84371
       O    13.44893  -13.16639   -7.34592
      H1    13.60216  -13.75764   -6.58670
       H    11.68365  -14.16827    2.20687
       O    11.51143  -13.26765    2.54624
      H1    11.15132  -12.82006    1.78799
       H    18.23623  -11.30107   -2.68236
       O    17.89066  -11.60608   -3.56057
      H1    17.37737  -10.86647   -3.92890
       H    10.30848  -16.82227   -3.47301
       O    11.00128  -17.00231   -2.82233
      H1    11.45810  -17.68804   -3.24450
       H    20.04937  -15.83594    7.06673
       O    19.48019  -16.46423    7.48355
      H1    18.59551  -16.08002    7.48365
       H    13.47290  -10.84583   -1.62384
       O    12.76266  -10.68035   -2.27440
      H1    11.96543  -11.11085   -1.88474
       H    18.08941  -19.27225    0.58514
       O    17.51874  -19.49796    1.42840
      H1    17.28296  -18.59587    1.73431
       H     8.42856  -15.97477   -4.35205
       O     9.19196  -16.17723   -4.92097
      H1     9.57980  -15.25908   -4.87700
       H    18.97823  -12.12291   -4.79310
       O    19.75903  -12.25053   -5.34355
      H1    19.65610  -13.16056   -5.69042
       H    14.87679  -17.30680    7.12380
       O    15.50770  -17.99332    6.77323
      H1    15.11092  -18.81006    7.17345
       H    10.20147  -17.34622    0.17984
       O    10.79159  -17.36707    1.00334
      H1    10.78274  -16.42985    1.22056
       H    16.59721  -14.96869    0.85347
       O    17.46012  -15.01776    1.39144
      H1    17.25843  -15.82723    1.90552
       H     6.91179  -15.56219   -2.74559
       O     7.22723  -14.95040   -3.39341
      H1     6.57631  -15.05665   -4.14917
       H    17.13388  -14.31414   -6.99876
       O    16.50588  -13.89679   -7.58754
      H1    17.09158  -13.67742   -8.33689
       H     8.28767  -15.92583    1.04531
       O     7.73322  -16.66000    1.32240
      H1     7.15461  -16.64042    0.54285
       H    17.39846  -14.70716   -3.80354
       O    16.82212  -14.03557   -4.23883
      H1    17.25561  -13.19806   -3.89105
       H    12.86973  -16.48417    1.70251
       O    12.85786  -15.77089    2.37066
      H1    13.74821  -15.33327    2.18996
       H     7.52640  -17.22994   -1.21391
       O     6.85428  -16.50781   -1.16661
      H1     6.02650  -16.93682   -1.45650
       H    18.33697  -19.43061    8.49618
       O    18.57208  -19.79801    7.61368
      H1    18.37756  -19.05539    6.97775
       H    13.22242  -13.83595   -3.69720
       O    12.70466  -13.45167   -2.97696
      H1    13.06008  -12.54459   -2.93656
       H     9.38922  -10.84478    1.81698
       O    10.20463  -10.73960    1.34181
      H1     9.97907  -10.76912    0.38806
       H    19.39872  -17.31312   -0.79855
       O    19.13869  -18.14465   -0.37703
      H1    19.74271  -17.97915    0.34980
       H     8.00450  -13.70733    5.32272
       O     7.61889  -12.79143    5.40404
      H1     8.07954  -12.35344    4.64087
       H    16.21169  -16.23391    9.04590
       O    16.31198  -16.44120   10.00741
      H1    15.59429  -17.06430   10.25623
       H    13.77865  -14.23585    5.22209
       O    14.47193  -14.79094    4.74435
      H1    13.87636  -15.33901    4.19868
       H     8.11416  -19.72993    2.09450
       O     7.23981  -19.37480    1.79519
      H1     7.54379  -18.46765    1.63357
       H    13.88790  -19.23626    4.46955
       O    13.91068  -18.30502    4.32039
      H1    14.29287  -17.85008    5.07766
       H    17.39772  -19.12196    4.80578
       O    17.70660  -18.26526    5.15107
      H1    17.03168  -18.08107    5.89858
       H    13.33337  -15.26742    6.65698
       O    13.41692  -16.07256    7.28205
      H1    13.05458  -15.69095    8.10834
       H    16.92032  -18.21450   -6.36296
       O    17.71824  -18.60751   -6.79911
      H1    17.21239  -19.34312   -7.18789
       H    15.02638  -19.42629   -2.05193
       O    14.33132  -18.76983   -2.01530
      H1    13.90440  -18.74925   -1.13874
       H    15.36141  -16.12467   -0.88237
       O    15.05136  -15.94437   -0.01372
      H1    14.16427  -15.81056   -0.34357
       H    12.59870  -17.63848    7.09848
       O    12.26025  -18.55153    7.07047
      H1    12.07841  -18.68434    8.03630
       H    10.36498  -13.80600   -2.51351
       O     9.49231  -13.84317   -2.07170
      H1     8.86532  -14.14997   -2.74111
       H    11.15445  -16.09750    4.08023
       O    10.92772  -15.32402    4.61517
      H1    11.11591  -14.62788    3.99301
       H     7.11459  -17.26917    3.27053
       O     6.78114  -17.59660    4.05465
      H1     6.61769  -18.53664    3.71422
       H    14.35243  -15.62388   -5.33684
       O    14.23782  -14.68249   -5.04446
      H1    15.10997  -14.33647   -4.81353
       H    11.28912  -18.13586    2.80387
       O    11.11961  -18.25118    3.73352
      H1    11.96484  -18.46641    4.08092
       H     9.25411  -10.44599   -1.37369
       O     9.98755  -11.09000   -1.28251
      H1     9.50230  -11.89387   -1.61907
       H    12.81597  -12.37639    6.36498
       O    12.62726  -13.34709    6.29154
      H1    11.73824  -13.33350    5.92098
       H     9.16652  -14.30338    0.85899
       O     9.94692  -14.77063    0.47551
      H1     9.80365  -14.65599   -0.48288
       H    14.67122  -18.85476    0.88961
       O    14.00065  -18.17865    1.02873
      H1    14.47484  -17.42923    0.57643
       H    14.25082   -9.70098    0.25778
       O    14.77791  -10.17939   -0.40616
      H1    15.64551   -9.94660   -0.03337
       H    19.32009  -11.97118    6.62490
       O    19.45695  -12.05668    5.69266
      H1    18.77679  -12.64329    5.35046
       H    15.74465  -16.73406   -4.40849
       O    15.61807  -17.09689   -5.30167
      H1    14.70694  -17.43754   -5.25274
       H    12.44104   -9.19901    1.78639
       O    13.43745   -9.30100    1.88247
      H1    13.45983  -10.07696    2.40187
       H    16.89652  -10.29040    1.57213
       O    17.08655   -9.63178    0.84711
      H1    17.91662   -9.26182    1.05276
       H    20.05608  -16.83540    2.97774
       O    19.65902  -16.54883    3.81119
      H1    18.71807  -16.78411    3.78318
       H    17.61039  -14.49453    3.24340
       O    17.60769  -14.47720    4.23436
      H1    16.68080  -14.36545    4.51966
       H    14.48239  -18.73399    9.28665
       O    14.20028  -17.94298    9.86510
      H1    13.80146  -18.40520   10.61158
       H     8.66426  -18.90304   -1.25293
       O     9.08419  -18.04542   -1.23314
      H1     9.71843  -18.04757   -1.94368

