180
frame 8 | Written by MDAnalysis XYZWriter (release 2.4.3)
       H    -1.68699    0.14616  -13.43173
       O    -2.08638    0.46028  -12.60293
      H1    -2.83308    0.94670  -12.98326
       H    -2.28787   -2.69217  -12.74093
       O    -2.93955   -2.23248  -13.26672
      H1    -2.74374   -1.30084  -13.02778
       H     5.51274    0.03459   -5.29540
       O     6.47214   -0.26356   -5.24851
      H1     6.42350   -1.18496   -4.95972
       H     3.29555    2.61097   -9.30336
       O     2.94704    3.37801   -9.82628
      H1     2.18251    2.91615  -10.23480
       H     0.51171   -3.35554   -7.52286
       O     0.77229   -3.47643   -6.56758
      H1     1.30779   -4.27476   -6.60257
       H     3.59956    2.94285  -11.79835
       O     4.53560    2.91528  -12.07621
      H1     4.70728    3.81699  -12.34341
       H     2.97987    1.04273  -12.74615
       O     3.66536    0.31618  -12.69743
      H1     4.48691    0.83476  -12.68509
       H     6.33362   -6.64261  -10.05238
       O     6.94892   -6.00880  -10.55412
      H1     6.44092   -5.73338  -11.32709
       H     8.62078   -4.76972  -11.65769
       O     8.50984   -3.90986  -12.12036
      H1     9.28833   -3.98405  -12.76304
       H     8.91395   -2.25796  -10.56565
       O     9.47154   -2.30749   -9.74839
      H1     8.86236   -2.59055   -9.11256
       H     3.76614   -2.83861  -10.53368
       O     3.08498   -3.23657   -9.93543
      H1     3.25458   -2.72491   -9.10032
       H     6.04331   -0.76939  -13.98006
       O     5.91427    0.12053  -14.23539
      H1     5.64687   -0.03090  -15.12650
       H     1.29625   -2.16620  -12.17812
       O     1.23668   -2.01888  -11.24794
      H1     1.87212   -2.65654  -10.93196
       H     1.21775    1.60293  -11.66108
       O     1.64914    2.24292  -12.23438
      H1     0.84039    2.65581  -12.71793
       H     4.74065   -4.38717   -7.13197
       O     5.27220   -3.85715   -6.54204
      H1     6.15069   -3.87990   -6.96270
       H    -1.34141    1.60688  -11.14918
       O    -0.94138    2.16540  -10.46803
      H1    -1.08634    3.11795  -10.75019
       H     3.37361   -7.94819   -6.27686
       O     3.22411   -8.06660   -7.24141
      H1     3.38647   -8.97719   -7.36666
       H     3.03497   -5.51575   -5.19188
       O     2.27077   -5.69982   -5.78004
      H1     1.57334   -6.05382   -5.19665
       H    -1.76334   -4.44201  -10.19508
       O    -2.09180   -5.00501   -9.45848
      H1    -2.59887   -4.34934   -8.88279
       H     2.70767    0.42934   -9.29150
       O     1.91531    0.40145   -9.88327
      H1     1.78587   -0.51077  -10.03811
       H     2.61309   -2.01899   -6.68258
       O     3.28609   -1.64468   -7.25508
      H1     4.04501   -2.21987   -6.97473
       H     3.24216   -6.26264  -10.25724
       O     2.48712   -6.76169  -10.72017
      H1     1.82859   -6.68999   -9.98314
       H    -0.06483   -6.56840  -12.90800
       O     0.20095   -5.64124  -12.90467
      H1     1.12371   -5.58556  -12.53952
       H     3.78587   -4.71893  -15.93507
       O     4.17744   -5.37427  -15.38403
      H1     3.72408   -6.21107  -15.54866
       H     9.60786   -0.59309   -9.60582
       O     9.71204    0.35874   -9.32945
      H1     8.88074    0.73354   -9.70259
       H     0.84576  -11.13943   -8.97538
       O     0.31040  -10.32798   -9.04265
      H1     0.86304   -9.84590   -9.64646
       H     2.37770   -8.36826  -10.91578
       O     2.23582   -9.28795  -10.65821
      H1     2.45246   -9.64899  -11.53360
       H     2.39243   -0.16762  -15.89303
       O     3.31591   -0.60864  -15.71295
      H1     3.33925   -0.48775  -14.77347
       H     4.21312   -1.36979  -12.03783
       O     4.74171   -2.15521  -11.71966
      H1     4.80153   -2.66058  -12.56348
       H     7.93339   -7.61390  -14.67191
       O     7.62605   -6.86131  -15.13708
      H1     7.13155   -6.40983  -14.43443
       H     3.32510    0.24723   -5.59874
       O     4.02254    0.90429   -5.65654
      H1     3.84826    1.71437   -5.07168
       H     6.45470   -1.47348   -8.92534
       O     6.65406   -1.01646   -9.77152
      H1     6.05111   -1.37605  -10.44366
       H    -0.19686   -3.06036  -11.45028
       O    -0.97860   -3.58184  -11.73473
      H1    -0.60152   -4.42374  -12.02373
       H    -1.19362   -2.13522   -7.63564
       O    -0.95626   -2.58734   -8.48576
      H1    -0.73069   -1.79220   -9.00091
       H     1.50360   -8.27424   -6.74785
       O     0.56696   -8.31516   -7.03631
      H1     0.55402   -9.00714   -7.75338
       H     6.91243   -8.45220  -12.53200
       O     7.83083   -8.31625  -12.85745
      H1     7.92023   -9.01495  -13.53475
       H    -0.84429    0.80740   -7.32010
       O    -0.61041    0.02673   -7.92643
      H1    -0.15724    0.58539   -8.62720
       H     6.69824   -3.25538   -5.04469
       O     6.95631   -2.64487   -4.33929
      H1     7.71774   -3.04690   -3.84487
       H    -2.13405   -3.93098   -5.24262
       O    -2.02308   -4.38367   -6.07735
      H1    -1.07586   -4.42974   -6.24436
       H     4.55722   -2.98573  -15.19477
       O     5.21145   -2.69051  -14.53585
      H1     5.97051   -2.47996  -15.06651
       H    -0.28274   -6.98680   -5.39715
       O     0.07928   -6.58761   -4.61253
      H1     0.12704   -7.42150   -4.02723
       H     7.25259   -4.53462   -8.86034
       O     7.48438   -3.78578   -8.36644
      H1     8.18974   -4.12279   -7.75021
       H     7.13947    1.84427  -10.92575
       O     7.70907    1.10698  -11.22065
      H1     7.28203    0.42416  -10.69999
       H    -0.50535   -5.46133   -8.72954
       O     0.32753   -5.83147   -8.41952
      H1     0.14568   -6.67265   -8.00243
       H     1.08709   -1.14024   -4.89010
       O     1.49449   -0.40386   -5.36677
      H1     0.83894   -0.41273   -6.11269
       H     1.41406   -3.18745   -3.56525
       O     0.69329   -2.62064   -3.96777
      H1     0.54186   -3.16495   -4.74757
       H     5.98354   -4.28530  -13.90853
       O     6.27853   -5.06476  -13.39777
      H1     7.08569   -4.64786  -12.97728
       H     3.27961   -5.86046   -7.95123
       O     3.93918   -5.35786   -8.43738
      H1     3.47215   -4.94957   -9.18566
       H    -3.31266   -7.12467  -11.78970
       O    -3.45162   -7.46578  -10.82532
      H1    -2.86106   -6.88250  -10.26268
       H     5.04737   -7.52031   -8.34617
       O     5.68793   -7.87403   -9.03475
      H1     5.17035   -8.55009   -9.40587
       H     5.12515    1.13479   -8.40906
       O     4.22372    1.44871   -8.32969
      H1     3.92270    1.22192   -7.43566
       H     3.48295  -10.19762   -9.28257
       O     3.90176  -10.46300   -8.48160
      H1     3.21949  -10.99148   -8.03467
       H    -2.50881    0.26737   -8.75657
       O    -3.30343    0.77356   -8.73924
      H1    -3.41059    0.94495   -9.69634
       H     5.50975    3.18857   -9.07220
       O     6.05754    3.07478   -9.89347
      H1     5.32865    3.00838  -10.61426
       H     9.02431    0.03492   -7.68205
       O     9.14210    0.00047   -6.68654
      H1     8.29642   -0.41366   -6.40800
       H     3.85548   -7.42483  -13.51683
       O     4.16928   -8.24347  -13.81007
      H1     3.47437   -8.86152  -13.57541
       H     3.06282   -2.15514  -16.31358
       O     3.08627   -3.11811  -16.36665
      H1     2.18613   -3.39460  -16.64759
       H     0.06829    0.83271  -15.03164
       O    -0.36237    0.01153  -14.87206
      H1    -0.70612   -0.37378  -15.68493
       H     0.56339   -5.52674  -16.19925
       O     0.89738   -6.17999  -15.63683
      H1     0.87996   -5.87165  -14.72807
       H     2.59021   -3.44343  -14.23775
       O     1.97073   -2.97338  -13.64707
      H1     1.43899   -2.41684  -14.22408

