180
frame 10 | Written by MDAnalysis XYZWriter (release 2.4.3)
       H   -11.44256  -17.82652   -6.86648
       O   -11.78456  -18.13125   -7.74528
      H1   -11.63526  -19.06076   -7.64483
       H   -12.47470  -17.21255   -5.56084
       O   -11.68633  -17.45688   -5.13642
      H1   -11.19550  -16.61365   -5.17874
       H    -6.21622  -13.31080  -14.15206
       O    -6.89969  -13.49172  -13.48110
      H1    -6.58821  -14.17760  -12.87043
       H   -15.25228  -13.07058   -9.26212
       O   -15.78067  -13.09787   -8.42021
      H1   -15.74785  -14.01001   -8.25537
       H   -12.02444  -15.36592  -14.05748
       O   -11.81866  -15.55784  -15.01132
      H1   -12.34657  -16.36561  -15.15230
       H    -9.50302  -12.29685  -12.08541
       O    -9.16836  -11.99701  -12.97501
      H1    -8.35972  -12.59323  -13.06420
       H   -13.43298  -18.66224   -7.71014
       O   -14.35513  -18.97475   -7.63681
      H1   -14.32162  -19.60365   -8.35902
       H   -13.15468  -11.90886  -10.01507
       O   -13.59087  -12.72374  -10.20440
      H1   -12.84071  -13.32930   -9.99367
       H    -2.95687  -18.13541   -8.53738
       O    -3.83366  -18.14300   -8.91692
      H1    -4.05985  -19.06755   -8.72400
       H   -11.04461  -17.56746   -9.33506
       O   -10.48246  -17.11966   -9.98078
      H1   -10.81153  -16.24264   -9.80926
       H    -6.44312  -16.86371  -15.27219
       O    -5.94514  -17.09373  -14.46617
      H1    -6.66547  -17.62212  -14.08239
       H   -12.73619  -18.33462  -18.00668
       O   -12.91867  -18.77483  -17.15744
      H1   -12.04538  -19.23808  -17.09225
       H    -8.74405  -10.68227   -5.37560
       O    -9.33436  -10.79958   -6.20322
      H1    -9.98890  -11.40389   -5.80207
       H   -14.22047  -16.74050  -13.83501
       O   -13.62892  -17.54503  -13.87989
      H1   -13.32031  -17.64378  -12.94312
       H    -8.21789  -17.29777  -17.24964
       O    -7.99756  -17.16838  -16.32238
      H1    -7.93891  -16.19542  -16.36342
       H   -15.91929  -12.65753  -12.86924
       O   -16.04572  -12.76714  -11.90946
      H1   -15.09355  -12.54286  -11.64194
       H    -5.38339  -17.17592   -8.69873
       O    -6.02427  -16.40496   -8.78444
      H1    -5.34578  -15.70048   -8.99241
       H    -9.42388  -15.01937   -5.17080
       O    -9.84562  -14.48643   -5.80779
      H1   -10.42594  -13.92558   -5.26174
       H    -7.02455  -18.77258   -3.31777
       O    -6.42273  -18.08822   -3.70192
      H1    -7.02365  -17.46490   -4.10669
       H   -12.42097  -11.66708  -11.53567
       O   -12.53611  -11.23174  -12.40646
      H1   -12.22395  -10.32368  -12.19071
       H    -8.82991  -16.30987   -3.30339
       O    -9.31353  -16.54019   -4.10350
      H1    -8.55174  -16.41500   -4.73082
       H   -18.51768  -15.95786  -11.63338
       O   -19.43137  -16.26411  -11.94063
      H1   -19.18400  -17.14995  -12.20451
       H   -12.71298  -10.41986   -8.27965
       O   -12.50742  -10.25203   -9.22506
      H1   -11.72638   -9.71215   -9.34460
       H   -14.20505  -10.57963  -11.67065
       O   -14.71630   -9.97325  -11.12924
      H1   -14.12087   -9.86413  -10.38440
       H    -7.47015  -14.35526  -15.13701
       O    -7.52390  -14.47024  -16.08641
      H1    -7.97374  -13.67466  -16.38732
       H    -8.80128  -11.26410   -8.23312
       O    -8.73704  -11.36655   -9.23869
      H1    -7.82902  -10.99240   -9.38692
       H    -8.84153  -13.24979   -8.82574
       O    -8.91982  -14.11543   -8.33860
      H1    -8.83158  -13.74699   -7.46406
       H    -6.20470  -12.58462  -12.04252
       O    -5.83546  -12.51671  -11.11565
      H1    -4.90323  -12.21135  -11.20085
       H   -12.00994  -11.77294   -4.28088
       O   -11.49904  -12.29026   -4.97772
      H1   -12.04995  -11.83024   -5.74759
       H    -6.15358  -15.42379  -11.62763
       O    -5.47563  -15.39784  -12.32675
      H1    -5.81261  -16.06898  -12.91468
       H    -5.63866  -10.70731   -7.62718
       O    -6.47745  -10.51835   -7.19224
      H1    -6.58905  -11.34696   -6.69285
       H    -8.10658  -15.54165  -11.47523
       O    -7.83781  -14.66296  -11.12229
      H1    -7.67269  -14.65955  -10.17172
       H   -13.24261  -14.47741  -12.29189
       O   -12.30056  -14.65992  -12.48239
      H1   -12.03253  -13.79683  -12.65869
       H    -8.93010  -17.90650   -8.59446
       O    -8.09034  -17.78761   -8.18028
      H1    -7.58148  -17.23248   -8.73003
       H    -7.29113  -14.11722   -6.27901
       O    -6.81232  -13.28322   -6.49055
      H1    -6.22681  -13.52739   -7.25445
       H   -18.81792  -16.86289   -9.64863
       O   -18.13751  -17.49776   -9.43305
      H1   -18.55370  -18.04079   -8.65560
       H   -16.05423  -16.58840  -13.91097
       O   -15.81607  -15.70547  -13.60054
      H1   -16.43191  -15.02556  -14.08423
       H   -12.27476  -19.90295  -13.89550
       O   -11.31292  -19.68830  -13.80376
      H1   -11.28396  -18.74898  -13.96440
       H   -12.83919  -13.80676   -4.40682
       O   -13.48745  -14.48845   -4.66504
      H1   -14.34809  -14.00988   -4.62258
       H    -9.17149   -8.68046  -10.78147
       O    -9.92381   -8.94945  -10.17560
      H1    -9.50149   -9.75596   -9.93397
       H   -17.01783  -19.32089  -11.65379
       O   -16.47970  -19.12589  -10.86803
      H1   -16.98419  -18.62930  -10.26049
       H    -9.46012  -13.83333  -10.88819
       O   -10.14170  -13.10476  -10.85838
      H1    -9.71095  -12.44302  -10.27540
       H   -16.66573  -14.74467  -11.86578
       O   -17.05020  -15.22651  -11.07231
      H1   -17.26297  -14.42275  -10.55145
       H   -13.41526  -17.74451  -11.09643
       O   -12.54541  -18.01941  -11.42228
      H1   -11.95909  -17.36480  -11.01676
       H   -15.07158  -16.41718   -6.05486
       O   -14.63166  -17.22677   -5.77602
      H1   -14.79117  -17.74923   -6.55033
       H   -16.01780  -17.29554   -3.15091
       O   -15.69590  -18.08658   -3.62044
      H1   -15.36974  -17.65220   -4.44601
       H   -11.70383  -12.63420  -16.04648
       O   -11.77140  -13.44566  -16.56704
      H1   -11.69212  -14.07898  -15.79769
       H    -9.27741  -17.21258  -12.51921
       O    -8.58366  -17.32735  -11.78395
      H1    -9.16255  -17.38640  -11.01241
       H   -14.01096  -11.66964   -6.56662
       O   -13.38751  -10.93123   -6.63006
      H1   -13.63115  -10.37274   -5.88990
       H    -4.51700  -13.57360   -8.52400
       O    -5.41815  -13.79286   -8.72152
      H1    -5.58442  -13.23948   -9.51363
       H   -15.40529  -17.46596  -10.77691
       O   -14.92846  -16.76411  -10.27191
      H1   -15.37158  -15.99425  -10.67012
       H   -15.92308  -16.30632   -8.80324
       O   -16.08402  -15.89519   -7.95742
      H1   -16.80175  -16.50852   -7.76422
       H    -7.78751  -18.98323  -11.72237
       O    -7.45651  -19.86103  -11.81626
      H1    -6.53259  -19.69915  -11.98762
       H   -12.31230  -15.14037   -7.93058
       O   -11.65988  -14.87741   -8.55477
      H1   -10.82260  -14.65902   -8.06074
       H    -9.40958  -17.17699  -14.93525
       O   -10.01393  -17.26276  -14.09643
      H1   -10.70132  -16.56713  -14.41242
       H    -7.40326  -16.62574   -6.61565
       O    -7.14124  -16.31596   -5.75165
      H1    -6.19631  -16.20956   -5.86210
       H   -12.72735  -16.05536   -3.36009
       O   -12.33495  -16.41396   -2.58255
      H1   -11.80990  -17.13652   -2.93631
       H   -15.99965  -11.66429   -5.62706
       O   -15.67161  -12.55702   -5.54143
      H1   -15.84956  -13.02523   -6.35094
       H    -9.33129  -19.73297   -3.70340
       O    -9.10382  -19.16907   -2.97402
      H1    -9.25793  -18.31545   -3.41828
       H    -3.90348  -18.65326  -12.05002
       O    -3.22910  -17.95913  -11.74675
      H1    -3.38946  -17.89939  -10.76773

