180
frame 3 | Written by MDAnalysis XYZWriter (release 2.4.3)
       H   -12.80590  -16.78599   -7.27136
       O   -13.25986  -15.98319   -7.29695
      H1   -12.83013  -15.53403   -6.59258
       H    -7.14125  -15.55737   -1.33727
       O    -6.20936  -15.82880   -1.41142
      H1    -5.83309  -14.90099   -1.41269
       H   -16.85436   -7.60427   -2.59148
       O   -16.65324   -7.06265   -3.42276
      H1   -16.32105   -7.77093   -3.97963
       H   -12.75553   -7.56480   -1.57958
       O   -12.44113   -8.46569   -1.35344
      H1   -11.52569   -8.40783   -1.59972
       H    -6.71783   -8.44185   -6.01126
       O    -7.57535   -8.28981   -5.55580
      H1    -7.40905   -7.46051   -5.06314
       H   -11.27238   -5.00773   -4.87676
       O   -11.81204   -4.84157   -5.67551
      H1   -11.44755   -5.54054   -6.32395
       H    -6.04649  -11.96333    1.04274
       O    -5.60086  -11.75769    0.20546
      H1    -4.86682  -11.23140    0.60512
       H    -7.56369  -12.72139    2.16855
       O    -7.81557  -13.39547    1.49072
      H1    -7.24312  -14.17309    1.71260
       H    -8.12047   -8.43410    2.56585
       O    -8.57063   -9.14500    2.94746
      H1    -8.85772   -8.68269    3.71996
       H   -10.94025  -14.49452    0.96289
       O   -11.34135  -13.64486    1.28656
      H1   -10.67757  -13.27551    1.84307
       H    -7.47208  -10.46828    3.00527
       O    -6.96827  -11.26767    3.26445
      H1    -6.78937  -11.06071    4.15717
       H    -6.35403   -6.34037   -3.06398
       O    -5.98176   -6.52069   -2.13676
      H1    -5.30001   -5.84283   -2.02891
       H    -9.76932  -15.08634    3.21740
       O    -9.00887  -14.65419    3.65667
      H1    -8.60764  -14.25631    2.86806
       H    -8.71869  -10.73748   -2.04696
       O    -7.84233  -11.12592   -2.24499
      H1    -7.37407  -10.87217   -1.41439
       H   -11.60875  -13.00712   -2.83688
       O   -12.30769  -13.31495   -3.48249
      H1   -12.64889  -14.11712   -3.01287
       H   -12.77413   -4.45838    0.03213
       O   -11.87871   -4.57343   -0.29366
      H1   -11.54028   -5.07278    0.48102
       H    -8.38230  -13.72665   -1.46674
       O    -8.60254  -14.60220   -1.83644
      H1    -9.00478  -14.99008   -1.04522
       H   -10.35160   -7.30459   -7.79250
       O   -10.34667   -6.65992   -7.01007
      H1   -10.26436   -7.28318   -6.26671
       H   -18.22006  -13.48649   -1.30304
       O   -17.50898  -13.39286   -0.61759
      H1   -18.11009  -13.50883    0.13699
       H    -7.28621   -6.59014   -0.72994
       O    -8.17325   -6.77243   -0.34335
      H1    -8.18615   -6.00798    0.29436
       H   -12.92038   -9.62451   -0.33275
       O   -13.27434  -10.34707    0.21772
      H1   -13.04038  -11.06628   -0.40523
       H    -9.04142  -10.22605   -7.02331
       O   -10.00236  -10.21195   -6.93238
      H1   -10.15165  -11.12448   -6.66228
       H   -13.37964   -8.47046   -3.79816
       O   -13.29158   -8.67068   -4.73930
      H1   -14.16588   -9.09328   -4.88149
       H   -15.58745   -8.60818    2.97550
       O   -15.07700   -8.66477    2.14000
      H1   -15.22828   -9.65749    2.06338
       H    -6.43608  -13.37231   -3.84480
       O    -6.53296  -12.56193   -4.39802
      H1    -6.66851  -11.90587   -3.68833
       H    -8.86936  -15.03732   -6.67591
       O    -9.75796  -15.06007   -6.29129
      H1    -9.95323  -14.09062   -6.38366
       H    -9.63372  -15.26611   -3.25650
       O   -10.09952  -15.95776   -3.79002
      H1   -10.02274  -15.57980   -4.66637
       H   -12.45459  -10.46925   -8.58043
       O   -11.82477  -10.59956   -9.33577
      H1   -11.02107  -10.47517   -8.85544
       H    -6.89627  -11.35301   -7.19499
       O    -7.70563  -11.76863   -6.82363
      H1    -7.38364  -11.91016   -5.89599
       H   -14.41809  -13.24422    0.16376
       O   -14.48040  -12.94845   -0.72557
      H1   -15.37988  -12.61050   -0.76257
       H    -9.40248   -8.36278   -1.60653
       O    -9.86689   -9.01634   -2.16970
      H1   -10.02641   -8.55322   -3.04672
       H   -11.37682  -13.00350   -5.22200
       O   -11.26443  -12.72017   -6.13442
      H1   -12.12430  -12.42188   -6.41880
       H   -11.37802   -8.72437   -4.68513
       O   -10.54553   -8.24604   -4.56475
      H1    -9.88445   -8.90979   -4.92518
       H    -9.90400  -11.15059    2.96933
       O   -10.45967  -11.85210    3.27492
      H1    -9.84915  -12.35105    3.90268
       H   -10.16026   -4.58601   -1.72047
       O    -9.43244   -5.04347   -2.13001
      H1    -9.05485   -5.49079   -1.36026
       H   -14.78833  -10.93952    0.96366
       O   -15.53062  -11.10876    1.58610
      H1   -16.29470  -11.05913    0.93165
       H    -5.42871  -12.61668   -1.15521
       O    -5.48046  -13.33800   -1.84257
      H1    -4.55140  -13.65580   -1.95601
       H   -10.39721  -11.88030   -0.58299
       O   -10.58430  -11.95575   -1.52285
      H1   -10.91685  -11.06854   -1.69627
       H   -14.75215  -14.69461   -3.21151
       O   -14.25083  -14.99349   -2.45594
      H1   -14.27619  -14.19362   -1.88501
       H   -12.34756  -12.05908    6.07739
       O   -12.50962  -12.81278    5.47502
      H1   -11.90243  -12.54443    4.70461
       H   -15.36964  -15.82955   -1.44620
       O   -16.13836  -16.43671   -1.24364
      H1   -16.76250  -15.79643   -0.88377
       H   -10.49426   -8.90039    2.19430
       O   -11.39124   -8.62842    2.03719
      H1   -11.61526   -8.98710    1.16402
       H    -7.52282   -8.36769    0.11015
       O    -7.59777   -9.34007    0.11793
      H1    -6.68902   -9.57028    0.21138
       H   -11.44952   -6.92353    1.72747
       O   -11.59334   -5.99672    1.92520
      H1   -12.25676   -6.12577    2.63105
       H   -16.08557  -11.18177    3.40577
       O   -15.83988  -10.98522    4.37679
      H1   -14.89932  -11.06601    4.21365
       H    -5.21344  -12.19520   -5.34834
       O    -4.53647  -11.70993   -5.85568
      H1    -5.12228  -11.02838   -6.22466
       H   -13.18746   -8.46014   -6.88232
       O   -13.35898   -8.13836   -7.77516
      H1   -12.49665   -8.03567   -8.19536
       H   -13.87078   -5.75822   -3.23048
       O   -13.42680   -6.18713   -2.44879
      H1   -12.98722   -5.37689   -2.12528
       H   -10.95497  -16.79954    0.96149
       O   -10.09616  -16.45490    0.67447
      H1    -9.53712  -16.95975    1.22729
       H   -12.69690   -8.85793    6.11728
       O   -12.59591   -8.42163    5.25087
      H1   -12.49998   -9.18713    4.62963
       H   -12.25197  -11.02297    3.14872
       O   -13.03214  -10.45897    3.28949
      H1   -13.09284   -9.84937    2.53006
       H   -14.79456  -12.35625   -4.58392
       O   -14.69769  -11.43731   -4.33233
      H1   -13.88683  -11.43772   -3.80355
       H   -14.25032  -11.81862   -7.51978
       O   -13.61660  -11.44437   -6.88293
      H1   -14.03472  -11.37895   -6.01559
       H    -8.22169   -5.50272   -3.43749
       O    -7.69967   -5.63214   -4.25418
      H1    -8.05887   -4.96596   -4.89187
       H    -5.26974   -8.63237   -1.27361
       O    -4.79334   -9.04461   -0.54942
      H1    -4.09807   -8.39225   -0.55991
       H   -13.05208  -14.03625    1.97503
       O   -14.00214  -14.25561    1.84291
      H1   -14.50322  -13.95031    2.58322
       H   -16.26648   -9.85391   -5.38849
       O   -15.96599   -8.97633   -5.27535
      H1   -16.39388   -8.60272   -6.10617
       H    -5.59783  -15.89747   -4.47581
       O    -6.47553  -15.61186   -4.28569
      H1    -6.62837  -15.78594   -3.36989
       H   -13.70251  -16.47576   -3.23853
       O   -13.23185  -16.98904   -3.95957
      H1   -12.30312  -16.68778   -3.81800
       H   -16.81445  -13.89016   -4.42988
       O   -16.00688  -14.29350   -4.77312
      H1   -15.88002  -14.18429   -5.71883

