180
frame 80 | Written by MDAnalysis XYZWriter (release 2.4.3)
       H    -1.00940   15.28962    6.41768
       O    -1.12208   15.45341    5.44631
      H1    -1.88505   16.09739    5.38853
       H     3.60132   16.25934    2.11875
       O     4.38490   16.35769    1.51610
      H1     4.11482   15.75918    0.75852
       H    -2.08056   15.23302   12.14957
       O    -2.28900   16.04759   11.75869
      H1    -2.73113   16.48926   12.53000
       H     6.75350   14.24169   10.30623
       O     5.90600   14.32378   10.80450
      H1     5.44484   15.08777   10.46366
       H     1.58066   16.38370   14.61763
       O     2.25338   16.89117   14.01556
      H1     1.87790   16.61937   13.14185
       H    -7.39487   17.48160   10.30740
       O    -7.63479   18.30381    9.83659
      H1    -8.45111   18.65028   10.18822
       H     2.57901   18.46610   13.91727
       O     2.91018   19.38211   13.67040
      H1     2.96872   19.40056   12.67418
       H     3.80698   16.79155   11.17872
       O     3.62543   16.05597   10.54609
      H1     3.58456   16.46572    9.64985
       H    -4.54662   13.62979   14.51440
       O    -5.44643   13.61087   14.89586
      H1    -6.06543   13.40622   14.15355
       H     1.73622   19.62255    7.61763
       O     1.50181   18.87661    8.19741
      H1     0.68885   18.48419    7.78094
       H     6.11000   16.70729    9.28266
       O     6.58573   17.60361    9.05861
      H1     6.82315   17.97789    9.94622
       H    -0.55339   19.04429   15.49707
       O    -0.44593   18.43641   16.23627
      H1    -0.20624   19.07723   16.96041
       H    -3.64931   17.99950   17.39737
       O    -3.06087   18.73284   17.37744
      H1    -2.43951   18.59067   16.67560
       H    -8.13157   15.47622    6.59925
       O    -8.44762   15.62670    7.46435
      H1    -7.63466   15.73213    7.92140
       H    -3.87847   16.88179   10.98457
       O    -4.69539   17.36445   10.74922
      H1    -4.81314   17.93915   11.51605
       H    -7.07077   14.61325    4.49332
       O    -7.04352   14.31631    5.41740
      H1    -6.12789   14.50379    5.70295
       H     0.07681   18.11733    4.27682
       O     0.88623   18.02169    3.78908
      H1     1.46638   17.31986    4.23771
       H    -4.18742   16.72315    4.55074
       O    -3.33014   17.14577    4.87411
      H1    -3.67949   17.42348    5.72678
       H     0.56564   16.88486   16.66304
       O     1.02222   16.06209   16.31511
      H1     1.69692   15.86470   16.97800
       H    -5.57333   19.77884    2.16303
       O    -5.07247   19.03500    2.59991
      H1    -4.25005   19.05275    2.10375
       H    -1.06266   15.01437   15.23246
       O    -0.55282   14.41552   14.64209
      H1     0.38414   14.44076   15.01852
       H    -2.25861   18.38428    4.20201
       O    -1.68781   19.16860    4.16108
      H1    -1.63817   19.23952    5.14868
       H    -3.65224   11.20971    9.80958
       O    -4.56861   11.42362    9.70486
      H1    -4.80419   11.70214   10.62541
       H    -6.38334   15.90270   11.84495
       O    -7.27125   15.95367   11.38327
      H1    -7.40498   15.01624   11.05252
       H     5.84498   18.07418    5.87661
       O     4.96998   17.75663    5.60411
      H1     4.56838   18.47176    5.17083
       H    -4.16795   12.92967    4.35911
       O    -4.88231   12.29652    4.30710
      H1    -5.43394   12.64679    5.05714
       H     2.81664   19.96237    5.05580
       O     3.04035   19.42333    4.25219
      H1     2.22865   18.86553    4.13251
       H     0.01983   13.13420   11.18604
       O    -0.72539   13.43598   10.66696
      H1    -1.15169   12.64943   10.23074
       H    -3.70601   15.19679    5.63617
       O    -4.05136   14.58233    6.36502
      H1    -3.27677   13.97620    6.55987
       H     4.96097   14.82441   12.39398
       O     4.13324   14.80428   12.96006
      H1     3.43287   14.62354   12.28234
       H    -4.55144   16.04507    2.97265
       O    -5.25820   16.19300    3.59651
      H1    -5.25934   17.12692    3.32377
       H    -1.36369   12.78757    3.11624
       O    -1.71058   13.66955    3.34920
      H1    -1.30941   13.89536    4.25727
       H    -0.75894   16.68914    8.70888
       O    -0.98376   17.61223    8.70786
      H1    -1.81378   17.80879    8.29266
       H    -0.47397    9.64058    7.11671
       O    -0.85108   10.48340    6.78526
      H1    -0.04832   10.92139    6.46218
       H    -6.43340   10.60609    6.55780
       O    -6.99518   11.37969    6.53106
      H1    -6.45323   11.95831    7.09248
       H    -1.66239   13.48438   13.75226
       O    -2.38431   13.12450   13.20442
      H1    -1.98777   12.96553   12.32916
       H    -1.58358   12.08894    6.75013
       O    -1.97077   12.97670    6.90022
      H1    -1.28403   13.30783    7.49575
       H     4.08359   17.21270    7.15298
       O     3.47226   16.94027    7.84427
      H1     2.92378   17.76797    7.90025
       H     5.83889   18.84820   14.23372
       O     5.36162   18.53592   13.45856
      H1     4.44598   18.78948   13.72539
       H     1.90445   12.28407   12.42332
       O     1.85495   12.81761   11.65258
      H1     2.35815   12.23612   11.01288
       H     2.64792   15.68793    6.90658
       O     2.35762   14.87259    6.43461
      H1     2.56673   15.17463    5.47746
       H    -6.24499   16.89903   13.93525
       O    -5.84777   16.12463   13.59279
      H1    -5.93412   15.53041   14.38895
       H    -6.37887   16.96611    7.83562
       O    -5.82027   16.26101    8.25950
      H1    -5.53747   16.56574    9.10511
       H     3.38344   15.06684    3.71916
       O     3.04007   15.97912    3.91075
      H1     3.81828   16.55485    4.25385
       H    -7.16254   19.48812   12.60805
       O    -6.22548   19.19635   12.69164
      H1    -6.02598   19.42586   13.63404
       H    -0.13898   16.27046   11.46738
       O     0.78128   16.52074   11.63122
      H1     1.20033   16.65351   10.77947
       H    -7.24027   13.27970    9.35789
       O    -7.96305   13.29342   10.05766
      H1    -8.67171   13.46015    9.37338
       H    -1.51364   10.94210    8.69442
       O    -1.84853   11.23132    9.56085
      H1    -1.29683   10.75710   10.24660
       H    -4.39146   16.97760    7.60240
       O    -3.69635   17.70217    7.46363
      H1    -4.29244   18.46230    7.36615
       H    -4.28148   16.93892   13.71396
       O    -3.40589   17.28654   13.86942
      H1    -3.22402   16.83489   14.70888
       H     0.33067   15.42897    2.47249
       O     0.43553   14.68755    1.84257
      H1    -0.34578   14.11232    2.15382
       H     1.61161   11.75917    5.01693
       O     0.70791   11.99417    5.17135
      H1     0.66660   12.96431    5.07040
       H    -0.12590   14.62647    9.19175
       O    -0.19348   14.87472    8.23291
      H1     0.71995   14.86654    7.92143
       H    -2.17909   16.36489   16.74141
       O    -2.82365   15.87012   16.17457
      H1    -2.82669   15.04780   16.70931
       H    -5.11828   12.94416    8.52426
       O    -5.82725   13.44437    8.18473
      H1    -5.27579   14.08184    7.65114
       H    -1.75317   18.81470   10.69471
       O    -1.94328   19.72949   10.86135
      H1    -2.19699   19.98574    9.98845
       H     4.85052   13.51263    7.48994
       O     4.08284   12.94569    7.46617
      H1     3.38821   13.49207    7.09343
       H    -2.74367   14.66405    2.08226
       O    -3.42915   15.20362    1.67723
      H1    -3.03216   15.64758    0.90994
       H     4.15525   12.67239   10.81253
       O     3.96097   11.94790   10.14670
      H1     4.00472   12.46367    9.29735
       H    -7.38084   18.39012    6.21022
       O    -6.63126   18.38894    6.86286
      H1    -6.98868   19.09018    7.43852

