180
frame 5 | Written by MDAnalysis XYZWriter (release 2.4.3)
       H    -9.83783  -17.46879   14.37772
       O   -10.02709  -17.59360   15.30620
      H1    -9.50153  -18.31997   15.60106
       H    -8.13889  -11.05094    8.25048
       O    -9.02869  -11.27211    8.49010
      H1    -9.17297  -10.78851    9.33540
       H    -9.18925  -10.73010   11.67803
       O    -9.75138  -10.35674   10.95278
      H1   -10.10559   -9.65697   11.49325
       H    -8.27668  -10.96917   15.05832
       O    -7.58847  -10.55110   15.64542
      H1    -6.87836  -10.53188   14.98330
       H    -4.57402  -16.31600    9.51194
       O    -5.35958  -15.90923    9.86198
      H1    -6.01910  -16.10114    9.13450
       H   -13.59849  -18.18903    5.87834
       O   -13.21372  -18.08479    6.76912
      H1   -12.92841  -17.14610    6.83598
       H    -6.09891  -12.60903   10.96266
       O    -6.72977  -13.36458   11.06574
      H1    -6.23355  -14.13137   10.80331
       H   -11.48459  -14.76883    7.05438
       O   -11.95150  -15.61715    7.21747
      H1   -12.78143  -15.23220    7.54598
       H   -11.35248  -15.97734   18.13757
       O   -11.35730  -16.00954   19.12105
      H1   -12.28866  -15.72458   19.34674
       H   -12.69984  -10.89200   13.51330
       O   -13.28952  -10.23539   13.92808
      H1   -13.96863  -10.89607   14.35702
       H    -5.56065  -14.08933   12.53320
       O    -4.94654  -14.63009   13.00288
      H1    -5.57190  -15.09726   13.63847
       H   -12.68499  -13.22538   17.29104
       O   -12.05518  -13.67011   16.78161
      H1   -11.27792  -13.12535   16.93948
       H    -7.94244   -9.27892   14.30739
       O    -8.26373   -8.59991   13.67803
      H1    -9.18865   -8.77901   13.74954
       H    -5.20474  -10.90549   13.35791
       O    -5.44968  -10.24137   14.05018
      H1    -4.77862   -9.59289   13.95032
       H   -12.62435  -19.05640   18.71232
       O   -13.07651  -18.24481   19.02470
      H1   -12.35307  -17.58696   19.24593
       H    -8.43665  -17.86107   12.05271
       O    -9.10592  -17.12865   12.27461
      H1    -9.96978  -17.46416   11.98032
       H   -15.15701  -14.87757   16.25541
       O   -15.83131  -14.30319   15.93748
      H1   -15.38337  -13.86198   15.18642
       H    -2.95633  -18.04042   11.01181
       O    -2.64845  -17.77503   10.08036
      H1    -3.40182  -18.11040    9.52787
       H    -3.77069  -18.49989    6.89441
       O    -4.12549  -18.61795    7.82821
      H1    -5.02674  -18.85024    7.46720
       H    -2.36430  -12.08245   12.77798
       O    -2.50488  -12.12455   11.81490
      H1    -1.88344  -11.42331   11.61321
       H   -12.44851  -11.33657    9.76354
       O   -12.16911  -12.21295   10.13639
      H1   -13.02917  -12.60592   10.32187
       H    -5.13069  -12.50643   17.46818
       O    -5.25084  -13.23544   18.12010
      H1    -5.43783  -14.02228   17.61872
       H   -14.39784  -18.23800   12.69488
       O   -14.73592  -18.68613   13.47826
      H1   -14.96687  -17.87199   13.92343
       H   -15.30530  -15.07499    8.77594
       O   -14.41394  -15.45792    8.69776
      H1   -14.77883  -16.35607    8.59624
       H    -3.64510  -12.67983    8.37056
       O    -4.31674  -12.28851    7.78728
      H1    -5.06897  -12.80671    7.98247
       H   -11.61737  -15.37728    3.62610
       O   -10.96367  -15.19921    4.30485
      H1   -11.33160  -15.43571    5.18706
       H    -2.09998  -14.32523    9.50749
       O    -2.31611  -13.41952    9.43291
      H1    -2.54671  -13.18254   10.33561
       H   -10.43218  -14.83037   10.00331
       O   -10.63709  -15.74331    9.63984
      H1   -11.12264  -15.71219    8.76269
       H   -15.65217  -12.50771   10.87430
       O   -15.53210  -11.56910   11.13676
      H1   -16.27196  -11.44717   11.76191
       H    -6.67620  -19.55475    5.90455
       O    -6.51026  -18.77633    6.46659
      H1    -7.22927  -18.89047    7.05375
       H    -6.75776  -14.42842    6.36189
       O    -6.93301  -13.67609    6.94634
      H1    -7.39805  -14.10628    7.67366
       H   -15.60125  -18.35705    8.77165
       O   -15.54547  -17.75364    8.02778
      H1   -14.81870  -18.18339    7.57534
       H    -4.14920  -14.67532   16.22492
       O    -3.34311  -14.19547   15.95313
      H1    -3.61431  -13.41599   16.51930
       H   -11.29244  -16.84658   10.71161
       O   -11.58072  -17.48590   11.37000
      H1   -11.99172  -16.88970   12.05608
       H    -8.46101  -15.37083   14.52285
       O    -8.94254  -14.87305   13.90911
      H1    -8.94919  -15.42461   13.11011
       H   -15.01070  -17.11138   11.39781
       O   -14.64858  -16.49914   12.03614
      H1   -15.22684  -15.75473   11.94513
       H   -11.82622  -13.20479   13.04523
       O   -12.06645  -12.31781   12.87090
      H1   -12.10299  -12.23057   11.89589
       H    -5.24676  -15.97971    6.36196
       O    -6.14212  -16.02636    6.10012
      H1    -6.27487  -16.96370    6.10129
       H   -13.46527  -14.71710   11.57418
       O   -13.95601  -14.02273   11.09034
      H1   -14.08366  -14.48720   10.21884
       H    -7.74761  -17.83138    8.81769
       O    -7.75689  -18.83168    8.93393
      H1    -6.93367  -19.03056    9.38592
       H   -12.41868  -15.00786   14.44604
       O   -11.98860  -14.93738   13.52678
      H1   -11.05707  -15.09063   13.70455
       H   -16.76292  -15.70742   15.19052
       O   -17.21828  -16.31742   14.61172
      H1   -17.76285  -16.85049   15.16200
       H    -9.91238  -11.34198   17.68627
       O    -9.74721  -12.24642   17.38255
      H1    -9.19637  -12.55335   18.10678
       H    -3.00172  -15.41799   12.65723
       O    -2.45411  -15.64218   13.48189
      H1    -2.95822  -15.12421   14.12696
       H    -8.23647  -13.52971   19.70161
       O    -7.93419  -12.69638   19.28332
      H1    -7.09474  -12.98481   18.85196
       H    -8.86458  -15.99460    8.92942
       O    -7.97637  -16.02946    8.55137
      H1    -8.25758  -16.07640    7.62327
       H    -9.71867  -13.34630    7.55705
       O   -10.06413  -13.55920    6.68534
      H1    -9.24608  -13.47732    6.17209
       H   -13.99255  -17.22134   17.87966
       O   -14.69898  -16.90468   17.23105
      H1   -14.67224  -17.75827   16.76376
       H    -7.43816  -19.33183   16.84795
       O    -6.67177  -18.99964   16.32080
      H1    -5.88572  -19.00356   16.88828
       H    -9.43534  -15.05383   17.10133
       O    -8.80919  -15.79789   17.21815
      H1    -8.98643  -16.24582   16.39296
       H   -15.43297  -12.93922   13.15904
       O   -14.67897  -13.08560   13.81177
      H1   -13.89963  -13.15298   13.19320
       H   -10.11688  -11.74874   13.32505
       O    -9.22108  -11.78651   13.60769
      H1    -8.90300  -12.65295   13.39401
       H   -10.09473  -12.87725   10.30604
       O    -9.55677  -13.53103   10.79059
      H1    -8.66199  -13.22520   10.50951
       H   -14.75177  -19.71282   10.70601
       O   -14.57235  -18.76472   10.55559
      H1   -13.66587  -18.75438   10.18424
       H    -6.70644  -17.18582   14.07436
       O    -6.99189  -16.76549   14.92362
      H1    -7.11029  -17.59606   15.39343
       H    -6.26806  -18.23566   11.67060
       O    -6.03300  -17.72655   12.46965
      H1    -5.96768  -16.83612   12.15414
       H    -9.29703  -17.19697    5.22497
       O    -9.14737  -17.18848    6.16611
      H1    -9.91963  -17.67414    6.57155
       H    -3.22902  -17.36812   12.74600
       O    -3.28357  -18.37184   12.51033
      H1    -4.23947  -18.44429   12.56368
       H    -5.92063  -16.21471   16.52030
       O    -5.14840  -15.83060   17.02011
      H1    -5.21065  -16.31111   17.82228
       H    -5.02791  -10.46946   10.47613
       O    -4.89685  -11.25143   11.05756
      H1    -3.90947  -11.27788   11.22626

