180
frame 3 | Written by MDAnalysis XYZWriter (release 2.4.3)
       H     4.14719    6.46354  -12.75615
       O     4.41334    7.41053  -12.79531
      H1     3.63645    7.77029  -12.33788
       H    -0.11849   17.07079  -13.20519
       O     0.22125   17.75255  -12.62423
      H1     0.77205   18.31108  -13.30920
       H     3.85238   15.93419  -17.45336
       O     4.01989   16.16158  -18.37480
      H1     3.28548   16.61913  -18.75903
       H     2.30771   10.89890  -12.56948
       O     3.03629   10.62531  -13.18225
      H1     3.75685   10.48470  -12.56965
       H     7.31174   11.67865  -16.83418
       O     7.42862   10.90061  -17.39159
      H1     6.45978   10.94857  -17.58973
       H     6.67998    9.18590  -15.14278
       O     6.88079   10.04364  -14.79585
      H1     7.03025   10.50052  -15.60330
       H     2.47422   10.74620  -19.64177
       O     1.97688   11.49886  -19.37988
      H1     2.67269   12.16984  -19.57024
       H    -1.68610   16.09930  -14.79124
       O    -0.72154   15.95806  -14.88752
      H1    -0.51564   15.25698  -14.28572
       H    -4.23938   17.09197  -19.98559
       O    -5.09497   16.86888  -19.62096
      H1    -5.02858   17.18501  -18.68610
       H    -3.78111    5.91177  -18.25626
       O    -3.07803    5.82190  -18.92454
      H1    -2.54102    5.21324  -18.38758
       H    -3.20362    8.68066  -11.90001
       O    -2.50860    9.32917  -11.90096
      H1    -2.61025    9.81751  -11.02551
       H     0.67549    4.61346  -13.25122
       O     0.61248    4.84492  -12.27362
      H1     0.73463    3.98687  -11.85628
       H    -2.86921    7.69102  -15.07066
       O    -3.76589    8.16695  -14.86701
      H1    -4.35636    7.44429  -14.74301
       H    -1.34907   18.55847  -17.67204
       O    -2.19131   18.97513  -17.77346
      H1    -2.19162   19.59245  -17.00171
       H    -3.59758   14.86899  -12.08442
       O    -4.37804   14.33738  -12.20317
      H1    -4.37039   14.34555  -13.18152
       H     7.39148   13.12358  -14.88614
       O     7.91599   12.90221  -15.68963
      H1     8.73411   13.31102  -15.40577
       H     1.18877   12.49124  -17.42405
       O     1.38479   13.39951  -17.22476
      H1     2.31679   13.28811  -17.00217
       H     0.07079   12.36420  -19.23990
       O    -0.77847   12.09840  -18.90252
      H1    -1.27180   11.91930  -19.66795
       H     3.74059   11.18928  -16.79800
       O     3.07200   11.04907  -16.16502
      H1     2.31333   11.13571  -16.74980
       H    -5.24360    9.97853  -17.81068
       O    -5.46387   10.97721  -17.71917
      H1    -6.36418   11.02524  -17.32182
       H     0.64198    3.99331  -19.58396
       O    -0.21303    4.29553  -19.22671
      H1    -0.30311    3.69074  -18.45147
       H     1.66920   12.59411  -14.39430
       O     1.09612   13.31305  -14.62370
      H1     1.25139   13.36186  -15.55021
       H    -5.36153   12.18102  -18.92006
       O    -5.35584   12.77962  -19.77853
      H1    -6.30868   12.57290  -19.92135
       H     0.25588   10.37178  -12.12182
       O     0.74179   10.85586  -11.43487
      H1     0.93941   10.14373  -10.82330
       H     4.52602    7.22226  -16.60638
       O     3.78845    6.60636  -16.53018
      H1     3.26649    6.94154  -15.79279
       H     4.44410    5.90220  -19.54388
       O     3.53400    6.20873  -19.70500
      H1     3.79934    7.18785  -19.63692
       H     3.55775   17.55803  -16.76837
       O     3.10342   18.40787  -16.87093
      H1     2.17792   18.14484  -17.05572
       H     6.66646    6.84463  -15.54279
       O     6.26465    7.63409  -16.00137
      H1     6.87932    7.65252  -16.77494
       H    -2.30648    8.42820  -18.86434
       O    -1.92975    8.60981  -18.02158
      H1    -1.24832    9.24461  -18.27763
       H    -6.94431    8.15443  -18.93738
       O    -7.76662    7.81050  -18.60003
      H1    -7.72344    8.14227  -17.65764
       H     1.28195    8.32347  -15.48130
       O     2.12270    8.06267  -15.05797
      H1     2.64154    8.78886  -15.24758
       H     1.32821    4.88735  -18.11254
       O     1.60997    5.01263  -17.21987
      H1     2.37235    5.59359  -17.37115
       H     5.49714    4.80605  -15.69585
       O     5.41792    4.08353  -16.29687
      H1     4.66402    4.28167  -16.80895
       H     0.60208   14.68688  -18.07254
       O     0.07745   15.23065  -18.67868
      H1    -0.74510   14.98928  -18.30266
       H    -4.22492   12.61695  -14.82242
       O    -4.25419   13.62131  -14.85587
      H1    -4.82800   13.62871  -15.62024
       H     0.63034   14.39030  -11.65265
       O     1.33672   14.62929  -12.22080
      H1     1.05555   14.07621  -12.99247
       H    -0.83023   10.35068  -14.43087
       O    -0.53675    9.66938  -13.75155
      H1    -1.23477    9.70518  -13.06605
       H     0.05869   12.43340  -10.70213
       O    -0.14889   13.27559  -10.15348
      H1    -1.05808   13.45138  -10.41340
       H    -6.78502    5.93370  -17.63169
       O    -5.85287    5.97145  -17.49244
      H1    -5.69972    6.89989  -17.70592
       H     4.81170   12.80359  -18.67713
       O     5.05850   12.46348  -17.76832
      H1     4.74811   13.16276  -17.17569
       H    -6.59606   12.74304  -13.32211
       O    -6.38263   11.89560  -12.85668
      H1    -5.45514   11.65076  -13.05737
       H    -3.37338   11.02198  -12.75686
       O    -3.71646   11.13606  -13.66855
      H1    -3.80941   10.20793  -13.90376
       H    -1.48337    7.83102  -16.45286
       O    -1.13105    7.61298  -15.52630
      H1    -0.73352    8.42633  -15.17853
       H     4.10864   13.39428  -15.27383
       O     3.82913   14.01490  -15.95328
      H1     4.32028   14.82052  -15.67961
       H    -3.90989   12.50768  -11.05384
       O    -3.00619   12.06744  -11.00367
      H1    -2.96011   11.96646  -10.03126
       H     1.20811    9.79266  -17.94520
       O     0.52501   10.26818  -17.41863
      H1     0.29735   10.88324  -18.17004
       H     5.39142   17.23703  -15.60815
       O     4.64481   16.71684  -15.24043
      H1     4.03171   17.39249  -15.01757
       H     1.41235    6.43113  -11.95120
       O     1.66102    7.33546  -11.83185
      H1     0.94347    7.78327  -12.34588
       H     2.83706   13.63207  -11.37482
       O     3.60416   13.10454  -11.19507
      H1     4.24811   13.82421  -11.21973
       H    -4.41133    8.42288  -18.75884
       O    -4.99039    8.46458  -18.01738
      H1    -4.44137    8.53423  -17.19699
       H    -3.66860   15.22981  -15.13884
       O    -3.38667   16.17922  -14.98620
      H1    -3.90340   16.67860  -15.66988
       H    -1.96593   13.69317  -17.22927
       O    -2.15217   14.60525  -17.00519
      H1    -1.47964   14.80188  -16.35753
       H     0.82635    5.01567  -15.71573
       O     0.10630    4.99266  -15.04237
      H1    -0.15314    5.91403  -14.96847
       H     2.21381    8.52819  -19.90615
       O     2.23379    8.77573  -18.94183
      H1     3.17756    8.91167  -18.73802
       H    -5.19775   15.86157  -17.25015
       O    -5.47273   14.93093  -17.26676
      H1    -4.79402   14.53273  -17.91103
       H    -0.95329    3.68446  -16.36809
       O    -0.84187    2.86517  -16.88702
      H1    -1.80101    2.56391  -17.00778
       H     6.88766   15.15233  -17.67724
       O     6.76869   15.19292  -16.67988
      H1     6.98200   14.28212  -16.44859
       H     0.71421   17.08557  -18.04957
       O     0.57555   17.67299  -17.28328
      H1     0.34157   17.13086  -16.48522
       H    -3.54677    4.71987  -15.38640
       O    -2.87121    5.03963  -16.00784
      H1    -2.02083    5.11296  -15.52717
       H     4.52713   12.02037  -13.75770
       O     5.42967   12.32715  -13.76511
      H1     5.88680   11.50273  -13.93066

