18
frame 1 | Written by MDAnalysis XYZWriter (release 2.4.3)
       H    -8.09992   -2.04536  -18.97765
       O    -7.82002   -2.01162  -19.90424
      H1    -7.62082   -2.91702  -20.11391
       H    -5.66389    2.15351  -18.77326
       O    -4.78380    2.29004  -18.46351
      H1    -4.81770    2.03177  -17.54025
       H    -5.33895   -1.29089  -19.62025
       O    -5.29516   -0.53001  -19.02930
      H1    -4.54227   -0.00947  -19.36408
       H    -5.72127   -0.43891  -17.27225
       O    -6.00482   -0.86175  -16.50611
      H1    -6.10278   -0.15211  -15.88346
       H    -2.40404    1.22392  -19.91999
       O    -2.28845    0.25006  -19.86388
      H1    -2.27878    0.01017  -18.92778
       H    -1.48205   -2.05552  -17.88637
       O    -1.96544   -1.36575  -17.44733
      H1    -2.64390   -1.86215  -16.92280

