18
frame 1 | Written by MDAnalysis XYZWriter (release 2.4.3)
       H    11.31032  -15.15302    3.33131
       O    11.59068  -14.71504    4.14551
      H1    11.98705  -15.46944    4.56782
       H     8.92416  -15.84666    2.17630
       O     9.67913  -16.06101    2.67546
      H1     9.29395  -16.63384    3.37757
       H     7.70859  -14.56132    2.63442
       O     7.08979  -15.09418    2.09110
      H1     7.17030  -14.86506    1.11013
       H    10.53705  -17.20475   -0.59280
       O    10.64726  -16.48360    0.06863
      H1    10.54670  -16.95342    0.84561
       H     8.99422  -11.93848    3.24185
       O     8.95211  -12.90128    3.21066
      H1     9.14631  -13.16086    2.29458
       H     8.37768  -17.99929    4.64170
       O     8.36910  -17.00338    4.80320
      H1     8.76958  -16.82487    5.65012

