18
frame 1 | Written by MDAnalysis XYZWriter (release 2.4.3)
       H    13.65401   18.35606   11.81067
       O    14.35705   17.74920   11.60284
      H1    13.95382   17.05198   11.02360
       H    16.78353   20.45185   11.77758
       O    16.94902   19.51766   11.47443
      H1    16.17356   18.97421   11.81239
       H    13.56838   18.12662    9.23523
       O    14.08707   18.57782    8.57878
      H1    13.56590   18.56985    7.73882
       H    14.56462   16.04771   12.79264
       O    14.50532   15.14779   13.11584
      H1    14.85149   14.50174   12.43652
       H    13.09267   15.16173   10.86080
       O    12.91435   15.87643   10.24594
      H1    13.19848   15.66118    9.35709
       H    17.67998   16.29520   10.55276
       O    16.75633   16.27870   10.84902
      H1    16.76755   15.55690   11.51877

