18
frame 1 | Written by MDAnalysis XYZWriter (release 2.4.3)
       H   -18.48604   12.64413    4.72016
       O   -18.69035   12.17261    5.53384
      H1   -18.42320   12.87468    6.14010
       H   -17.03952   13.10162    2.84452
       O   -17.66186   13.55879    3.46436
      H1   -17.21050   14.41222    3.56535
       H   -19.01757   14.06796    8.28255
       O   -18.39495   14.26905    7.55808
      H1   -18.85497   14.91348    6.95841
       H   -15.06304   11.89768    5.80226
       O   -15.63393   12.66470    5.92098
      H1   -16.53393   12.36439    5.91031
       H   -18.77739   16.58905    5.49257
       O   -19.43413   15.81726    5.59759
      H1   -20.15170   16.13250    6.20296
       H   -16.68902   12.86943    9.64179
       O   -15.94974   12.62685    9.09846
      H1   -16.15341   12.77264    8.14531

