18
frame 1 | Written by MDAnalysis XYZWriter (release 2.4.3)
       H   -10.95141   16.97433   10.07823
       O   -10.26280   17.45599    9.61223
      H1    -9.39403   17.20953    9.92762
       H   -10.50259   13.83378   11.88392
       O   -11.34117   14.20010   12.09593
      H1   -11.76282   13.35109   12.32833
       H   -12.07633   15.35363   10.90587
       O   -12.47194   16.06616   10.39854
      H1   -12.81732   16.63350   11.10260
       H    -9.13730   17.05665   12.04869
       O    -9.61700   16.85581   12.89880
      H1   -10.57494   17.05842   12.74462
       H    -8.75239   17.95210   13.97231
       O    -8.29631   18.46821   14.63419
      H1    -7.36291   18.38036   14.50793
       H   -12.98281   17.40434   13.34638
       O   -13.02933   17.87314   12.45323
      H1   -12.65746   18.78854   12.52557

