18
frame 1 | Written by MDAnalysis XYZWriter (release 2.4.3)
       H    -3.46669   -8.73238   16.27281
       O    -3.90776   -8.81316   17.11673
      H1    -3.14072   -8.93625   17.76862
       H    -8.92118   -9.28623   17.79404
       O    -8.41846   -8.48538   18.05729
      H1    -7.56505   -8.74057   18.46376
       H    -5.32555   -9.29484   18.06791
       O    -6.14471   -9.46954   18.60323
      H1    -6.67454  -10.27603   18.37542
       H    -5.61012  -11.22996   15.54610
       O    -6.46139  -10.79393   15.41579
      H1    -6.96318  -11.03458   16.22626
       H    -4.33884   -7.05385   17.77542
       O    -4.36273   -6.09552   17.82757
      H1    -3.51219   -5.84829   18.31082
       H    -8.86564  -12.06519   17.26381
       O    -8.02468  -11.73215   17.65828
      H1    -7.45921  -12.52936   17.71138

