18
frame 1 | Written by MDAnalysis XYZWriter (release 2.4.3)
       H   -13.28639  -18.16966  -15.90771
       O   -12.80119  -18.30899  -16.71018
      H1   -12.50511  -19.19975  -16.69494
       H   -14.54723  -15.37337  -17.72583
       O   -14.64252  -15.91154  -18.52546
      H1   -13.77300  -16.24110  -18.67439
       H   -11.33457  -16.65151  -19.24092
       O   -12.23961  -17.02068  -19.09475
      H1   -12.17960  -17.25689  -18.15774
       H   -16.56471  -18.37923  -18.01167
       O   -17.02346  -18.61522  -18.83787
      H1   -17.17195  -17.76281  -19.36456
       H   -13.72210  -13.85361  -16.33935
       O   -14.46623  -14.47383  -16.03907
      H1   -15.25363  -13.93724  -16.12230
       H   -16.49510  -17.17051  -16.05153
       O   -15.73102  -17.58699  -16.48598
      H1   -15.24002  -16.91882  -16.97419

