18
frame 1 | Written by MDAnalysis XYZWriter (release 2.4.3)
       H   -19.76917    3.62020    1.93720
       O   -18.89066    3.17579    1.94348
      H1   -18.89494    2.62325    1.14960
       H   -17.83967    4.84665   -0.16725
       O   -17.61542    4.69953   -1.07506
      H1   -18.35295    5.15245   -1.56505
       H   -17.17199    3.37847    2.72652
       O   -16.23653    3.22524    2.84755
      H1   -15.66227    3.30451    2.10073
       H   -17.53905    2.83956   -0.70252
       O   -17.84810    1.98162   -0.41719
      H1   -17.07319    1.38829   -0.25448
       H   -19.34932    6.82437    0.83466
       O   -18.83670    6.07326    1.12332
      H1   -19.54801    5.48726    1.36993
       H   -14.65761    4.47334   -0.09814
       O   -14.81831    5.28875   -0.59495
      H1   -15.69578    5.15072   -0.96146

