18
frame 1 | Written by MDAnalysis XYZWriter (release 2.4.3)
       H     6.34214    4.69798   17.70538
       O     5.77345    5.33073   18.08722
      H1     5.42233    5.91051   17.43363
       H     3.72409    6.78829   16.65554
       O     4.50595    7.35951   16.70661
      H1     4.22008    8.30643   16.72086
       H     5.62765    7.02075   15.41622
       O     6.05811    6.51764   14.67757
      H1     5.45646    5.98629   14.16152
       H     8.30104    4.47676   15.38271
       O     7.39341    4.17597   15.58944
      H1     6.88193    4.91912   15.29420
       H     4.02488    4.71880   12.25729
       O     4.14905    5.38806   12.95169
      H1     3.28859    5.80974   13.03930
       H     6.75626    7.99227   13.84234
       O     7.19438    8.83821   13.70054
      H1     6.45713    9.45298   13.62385

