18
frame 1 | Written by MDAnalysis XYZWriter (release 2.4.3)
       H   -11.29090  -12.17742  -12.82116
       O   -10.29679  -12.06581  -12.65497
      H1    -9.79864  -12.52680  -13.36005
       H   -13.22333   -8.92572  -10.12056
       O   -13.55032   -9.31295  -10.93684
      H1   -14.50709   -9.35038  -10.90862
       H   -13.60537   -9.83835  -14.98532
       O   -14.22969   -9.89116  -14.21820
      H1   -15.00352   -9.41411  -14.49441
       H   -13.54642  -11.12663  -13.32860
       O   -12.99655  -11.58884  -12.70558
      H1   -13.11030  -11.10827  -11.84952
       H   -12.81604   -8.16652  -13.59649
       O   -12.14765   -7.54343  -13.92396
      H1   -11.41658   -8.13828  -14.11355
       H   -13.77945  -13.22085  -12.85368
       O   -14.32027  -13.94913  -13.25238
      H1   -14.21836  -13.93773  -14.22277

