18
frame 1 | Written by MDAnalysis XYZWriter (release 2.4.3)
       H    -5.73929   -7.96234   -2.63323
       O    -5.32398   -8.39131   -1.88249
      H1    -5.14897   -7.61155   -1.37547
       H    -2.06710   -5.25242    0.97972
       O    -2.25083   -5.50444    0.00274
      H1    -1.79013   -4.77865   -0.44917
       H    -8.48966   -8.90637   -1.11636
       O    -8.01263   -8.11385   -0.82339
      H1    -7.05508   -8.27416   -1.02455
       H    -6.17639   -5.33527   -3.48983
       O    -6.15837   -4.51772   -3.01737
      H1    -5.42886   -3.94603   -3.30991
       H    -4.12955   -5.55711   -0.57388
       O    -5.01591   -5.92114   -0.70642
      H1    -5.28725   -5.42350   -1.44053
       H    -7.67171   -5.83842    1.57123
       O    -7.02689   -5.28701    1.06902
      H1    -6.31164   -5.88079    0.81752

