18
frame 1 | Written by MDAnalysis XYZWriter (release 2.4.3)
       H    -5.75142   13.11015   15.81154
       O    -5.42778   13.80362   16.48960
      H1    -6.16882   14.37513   16.45599
       H    -6.86047   11.54020   14.47769
       O    -6.71152   12.50018   14.47858
      H1    -7.52859   12.93906   14.70871
       H    -9.59259   13.99568   15.36860
       O    -8.76279   14.34238   15.09128
      H1    -8.70375   15.24758   15.39978
       H    -8.05597   14.73288   12.46747
       O    -7.24788   14.97180   12.03246
      H1    -7.00076   14.30282   11.37885
       H    -9.56002   10.92269   13.99516
       O    -9.27074   10.76211   14.91559
      H1    -9.84830   11.38852   15.37760
       H    -5.79312   10.71364   17.56440
       O    -5.12106   11.26763   17.24794
      H1    -5.46569   12.16685   17.19564

