18
frame 1 | Written by MDAnalysis XYZWriter (release 2.4.3)
       H   -13.60537   -9.83835  -14.98532
       O   -14.22969   -9.89116  -14.21820
      H1   -15.00352   -9.41411  -14.49441
       H   -15.57540   -7.75933  -17.60669
       O   -16.41497   -7.39264  -17.40765
      H1   -17.02058   -7.73861  -18.09531
       H   -18.90702   -8.64676  -19.80566
       O   -18.60883   -8.44209  -18.89489
      H1   -18.73559   -9.26348  -18.39549
       H   -16.05999  -11.11987  -18.07589
       O   -15.87992  -10.70931  -17.22379
      H1   -16.59371  -10.08201  -17.03806
       H   -17.21092   -4.06238  -17.47759
       O   -16.58450   -4.72029  -17.83190
      H1   -16.70660   -5.51462  -17.34271
       H   -18.42725   -9.21121  -15.57052
       O   -17.46620   -9.13888  -15.62956
      H1   -17.10697   -8.30345  -16.10193

