18
frame 1 | Written by MDAnalysis XYZWriter (release 2.4.3)
       H   -13.10635    3.56947   17.22548
       O   -12.22466    3.18352   17.25448
      H1   -11.87899    3.35379   18.16457
       H   -18.81385    4.68618   15.20259
       O   -18.05606    4.79784   14.59653
      H1   -17.46597    4.03318   14.88852
       H   -15.45859    2.72492   15.68415
       O   -14.91054    3.48237   15.50130
      H1   -14.26969    3.14700   14.77429
       H   -14.72192    1.77415   13.00527
       O   -15.59600    1.24348   12.81465
      H1   -15.42164    0.66935   12.05759
       H   -15.61845    6.58055   15.54910
       O   -14.78679    6.05568   15.47147
      H1   -15.03078    5.17872   15.73034
       H   -17.78460    1.94299   16.81544
       O   -17.51891    1.88474   15.88469
      H1   -16.96331    1.15184   15.75758

