18
frame 1 | Written by MDAnalysis XYZWriter (release 2.4.3)
       H   -16.82003    9.36632   -5.84640
       O   -17.01940    9.84856   -5.03497
      H1   -17.18161    9.19076   -4.36844
       H   -17.26968    6.56731   -3.04513
       O   -17.52880    7.49424   -2.85874
      H1   -17.11124    7.65819   -1.98863
       H   -17.83967    4.84665   -0.16725
       O   -17.61542    4.69953   -1.07506
      H1   -18.35295    5.15245   -1.56505
       H   -18.99765    8.46069   -3.16184
       O   -19.91193    8.67594   -3.42992
      H1   -20.21947    9.31816   -2.75676
       H   -17.24872    8.31615    0.60856
       O   -16.78826    8.43196   -0.21934
      H1   -16.92256    9.40959   -0.46918
       H   -18.27608   11.04940   -5.44410
       O   -19.08781   11.54409   -5.47120
      H1   -18.98585   12.47175   -5.56544

