18
frame 1 | Written by MDAnalysis XYZWriter (release 2.4.3)
       H   -12.29986   -8.81803   -8.26862
       O   -12.01853   -8.09762   -8.82727
      H1   -12.85365   -7.69739   -9.03276
       H   -16.12906   -8.00193   -5.89860
       O   -15.16348   -7.98481   -5.84278
      H1   -14.99802   -8.12336   -6.80581
       H   -13.17865  -10.23356   -5.03153
       O   -13.78942   -9.80580   -4.37821
      H1   -14.40095   -9.32976   -4.98586
       H   -14.99616  -11.90146   -5.48087
       O   -15.48612  -12.74537   -5.41186
      H1   -16.32954  -12.37819   -4.99833
       H   -12.86007  -10.46520   -8.06726
       O   -13.33947  -10.11366   -7.30588
      H1   -14.25000  -10.24493   -7.50637
       H   -15.62848  -11.71640   -8.65725
       O   -15.84788  -10.88061   -8.26639
      H1   -16.71699  -11.00552   -7.87795

