18
frame 1 | Written by MDAnalysis XYZWriter (release 2.4.3)
       H   -10.18282  -15.74263   14.06914
       O   -11.10854  -15.80271   13.78283
      H1   -11.31461  -15.08398   13.16995
       H   -11.72535  -14.66143    8.18848
       O   -11.15873  -15.04323    8.90047
      H1   -11.50788  -15.89852    9.05498
       H   -13.07702  -12.30460   15.29587
       O   -12.43465  -12.76855   14.72041
      H1   -12.14976  -12.17424   14.02888
       H   -14.22150  -12.60244   12.81061
       O   -14.49560  -11.81135   12.37444
      H1   -15.46448  -11.80861   12.32631
       H   -15.05876  -15.32742   11.55110
       O   -14.73604  -14.66418   12.19709
      H1   -15.32298  -14.64357   12.96268
       H   -12.03820  -14.58495   10.77924
       O   -11.98225  -14.28377   11.73104
      H1   -12.89207  -14.53191   12.09888

