18
frame 1 | Written by MDAnalysis XYZWriter (release 2.4.3)
       H    11.05357   12.03503   15.94136
       O    11.30401   11.83674   16.82263
      H1    11.39401   12.67682   17.22643
       H    14.37064   14.01143   18.90082
       O    13.74927   13.77127   19.58700
      H1    13.59045   12.83903   19.55373
       H    11.89900   13.76396   19.39645
       O    11.02272   13.67450   18.92107
      H1    10.71781   14.58644   19.02471
       H     9.81738   10.69171   18.97528
       O    10.11037   10.37723   19.87798
      H1    10.72441   11.04493   20.19358
       H    15.10000   15.06159   17.17838
       O    15.70019   14.46298   17.64132
      H1    16.16810   14.96232   18.30358
       H    15.65975   10.03036   18.34724
       O    14.88119   10.40922   18.82821
      H1    15.17227   10.48346   19.72623

