18
frame 1 | Written by MDAnalysis XYZWriter (release 2.4.3)
       H    14.37064   14.01143   18.90082
       O    13.74927   13.77127   19.58700
      H1    13.59045   12.83903   19.55373
       H    14.97284    8.27439   18.95126
       O    14.65102    7.40853   19.07036
      H1    15.48217    6.95330   19.30724
       H    17.28017   10.24576   17.05312
       O    16.62573    9.60602   16.69662
      H1    16.60556    9.79259   15.77216
       H    18.10199   12.33389   18.37397
       O    18.23883   11.36318   18.29473
      H1    18.18711   11.02793   19.20286
       H    15.65975   10.03036   18.34724
       O    14.88119   10.40922   18.82821
      H1    15.17227   10.48346   19.72623
       H    12.12113    9.63312   17.14474
       O    12.75841    8.95044   17.17292
      H1    13.48475    9.48998   17.37769

