18
frame 1 | Written by MDAnalysis XYZWriter (release 2.4.3)
       H    -5.12902    4.58484   18.15023
       O    -4.13963    4.58179   18.08254
      H1    -4.02431    5.21457   17.33385
       H    -5.81903    2.69941   16.21349
       O    -5.07539    2.06385   16.43691
      H1    -4.58926    2.40613   17.22453
       H    -3.30708    5.86988   15.63325
       O    -3.89241    6.31830   16.22368
      H1    -3.56672    7.16690   16.46023
       H    -2.47271    3.45152   18.42853
       O    -1.73000    2.84936   18.67230
      H1    -1.13565    3.33274   19.23829
       H    -7.27290    3.39403   18.68126
       O    -6.91887    4.23718   18.28501
      H1    -6.95465    4.08334   17.32450
       H    -3.85549    7.59021   18.88668
       O    -3.81481    7.31420   19.83445
      H1    -4.46786    7.95211   20.18826

