18
frame 1 | Written by MDAnalysis XYZWriter (release 2.4.3)
       H    -5.96793  -16.92472   11.77643
       O    -6.07964  -16.36979   10.93530
      H1    -6.57507  -16.83829   10.20785
       H    -8.10311  -17.90081   14.43037
       O    -7.59280  -17.84329   13.60401
      H1    -8.14984  -17.61425   12.83537
       H    -7.98792  -14.04656   11.95223
       O    -7.78847  -14.80466   12.44551
      H1    -7.35428  -15.39856   11.83449
       H    -8.07769  -18.08206   10.66706
       O    -8.81761  -17.54989   10.96098
      H1    -8.65627  -16.70191   10.55021
       H   -10.22742  -20.08054    9.61574
       O   -10.49765  -19.16564    9.53183
      H1    -9.87477  -18.54299    9.85707
       H    -9.22069  -15.13120    9.16866
       O    -8.27802  -15.26560    9.34516
      H1    -7.87831  -14.40580    9.51490

