18
frame 2 | Written by MDAnalysis XYZWriter (release 2.4.3)
       H    -1.91676  -11.83494   18.56612
       O    -2.80821  -11.47038   18.76511
      H1    -2.82711  -10.55715   18.40057
       H    -1.67904  -15.52529   17.54762
       O    -2.46321  -15.85759   17.19728
      H1    -2.20224  -16.26935   16.38836
       H    -4.07485  -12.55957   15.77665
       O    -3.60854  -11.71299   15.67275
      H1    -3.11148  -11.84615   14.88167
       H    -5.21174  -14.30926   19.73456
       O    -5.31030  -13.54160   19.13122
      H1    -4.43039  -13.14568   19.15151
       H    -4.89173  -13.88678   17.41642
       O    -5.15250  -13.78582   16.48588
      H1    -6.04974  -14.08358   16.50043
       H    -8.24783  -12.11528   17.64739
       O    -7.43115  -11.66608   17.63155
      H1    -6.82365  -12.37689   17.85165

