18
frame 2 | Written by MDAnalysis XYZWriter (release 2.4.3)
       H   -18.10907  -15.68188  -10.53054
       O   -18.97805  -15.70706  -10.91206
      H1   -18.74119  -15.91509  -11.84946
       H   -14.07623  -16.06378   -8.06292
       O   -14.90443  -16.26546   -7.62228
      H1   -15.60945  -15.95792   -8.21681
       H   -17.81440  -15.24414   -8.26247
       O   -17.13194  -15.46484   -8.90067
      H1   -16.82015  -14.58796   -9.20336
       H   -16.73648  -18.67749   -7.95351
       O   -17.60433  -18.27353   -7.79112
      H1   -17.47953  -17.52204   -8.37895
       H   -19.51922  -15.56801   -6.71606
       O   -18.89804  -14.82172   -6.78407
      H1   -18.31480  -14.92153   -6.03607
       H   -14.47548  -13.88679   -9.32477
       O   -15.26206  -13.35180   -9.45203
      H1   -15.53456  -13.47651  -10.32967

