18
frame 2 | Written by MDAnalysis XYZWriter (release 2.4.3)
       H   -16.60192    2.60152   15.10923
       O   -15.78721    3.01534   14.71650
      H1   -15.42193    2.51785   14.02639
       H   -19.72252    1.79648   13.53550
       O   -19.46316    2.56165   12.93384
      H1   -18.52365    2.40270   12.84335
       H   -16.34507   -0.16890   14.26995
       O   -16.34904   -0.34247   15.22948
      H1   -16.50552   -1.27730   15.35901
       H   -20.01313    0.55898   17.16686
       O   -19.93157    0.27060   18.09142
      H1   -19.06006    0.57938   18.40070
       H   -17.87146    3.13032   18.75676
       O   -17.34473    2.43608   18.32304
      H1   -16.36835    2.71176   18.09199
       H   -18.09134    2.11516   16.69968
       O   -18.03610    1.67230   15.81958
      H1   -17.52164    0.80400   15.89150

