18
frame 2 | Written by MDAnalysis XYZWriter (release 2.4.3)
       H    -5.46575  -19.52110   -2.14862
       O    -5.31988  -18.72691   -1.64147
      H1    -6.06519  -18.14275   -1.77055
       H    -7.34659  -16.33861    2.64700
       O    -6.50547  -15.88866    2.39106
      H1    -6.52975  -15.87753    1.45018
       H    -2.86006  -18.10459    3.45196
       O    -2.42597  -18.65790    4.15478
      H1    -1.48115  -18.62237    3.98637
       H    -4.87273  -19.10986   -0.12908
       O    -4.67873  -19.34518    0.81914
      H1    -4.64718  -18.56230    1.44174
       H    -3.50567  -16.69089    2.26783
       O    -4.16968  -17.34313    2.57174
      H1    -5.05128  -16.87074    2.48039
       H    -2.26605  -18.42762   -3.08019
       O    -1.49872  -18.37106   -2.54208
      H1    -1.87717  -19.03903   -1.92822

