18
frame 2 | Written by MDAnalysis XYZWriter (release 2.4.3)
       H    11.96833   19.91410   14.64060
       O    12.08721   19.40690   13.83167
      H1    12.37407   20.00410   13.13279
       H    14.23934   13.95487   17.46493
       O    13.80915   14.42608   18.21337
      H1    13.76453   13.77436   18.90598
       H    14.13314   20.11584   19.29424
       O    13.34471   19.60195   19.05696
      H1    13.44768   19.48542   18.12572
       H    13.47236   17.38160   16.34672
       O    13.46423   18.36597   16.45323
      H1    14.07203   18.76375   15.87077
       H    16.36422   17.80003   14.65840
       O    16.68153   17.91365   15.53191
      H1    17.50615   17.39217   15.56652
       H    14.84664   15.81935   14.25214
       O    14.58554   15.61703   15.18756
      H1    13.74840   15.19148   14.96506

