18
frame 3 | Written by MDAnalysis XYZWriter (release 2.4.3)
       H    10.08190  -13.01397  -18.23870
       O     9.62471  -13.41152  -18.96664
      H1     8.70638  -13.14717  -18.82015
       H     8.98216  -10.52554  -14.59492
       O     9.42029   -9.94918  -15.21693
      H1     9.00823   -9.98227  -16.10078
       H    11.80302   -8.56824  -17.44014
       O    12.46516   -9.29929  -17.51387
      H1    12.72631   -9.25761  -18.41329
       H    14.52141   -9.44294  -15.38186
       O    14.42953   -9.79946  -14.50274
      H1    13.87809  -10.58823  -14.63085
       H    12.37923  -12.23596  -14.83882
       O    13.01113  -12.45749  -14.10909
      H1    13.75154  -12.69366  -14.67612
       H    10.76334  -11.02822  -15.91728
       O    11.37342  -11.61857  -16.39090
      H1    11.85605  -10.97416  -16.94462

