18
frame 2 | Written by MDAnalysis XYZWriter (release 2.4.3)
       H     4.77616   17.10435  -13.92581
       O     4.15202   17.37103  -14.60441
      H1     3.28251   17.58286  -14.14039
       H     3.27490   15.96388  -15.94971
       O     2.81281   15.45647  -16.59894
      H1     2.23970   16.15387  -16.93442
       H     0.48627   15.24777  -13.01816
       O    -0.33957   15.61906  -13.23071
      H1    -0.23018   15.69941  -14.18221
       H     2.48932   18.51780  -12.43481
       O     3.13392   18.76703  -11.72504
      H1     2.56737   18.72938  -10.91810
       H     0.94308   17.28263  -13.38780
       O     1.63271   17.80395  -13.73109
      H1     1.27171   18.33513  -14.46933
       H    -2.00789   16.00205  -12.75565
       O    -2.95211   15.94488  -13.00933
      H1    -3.55568   15.92860  -12.24383

