18
frame 2 | Written by MDAnalysis XYZWriter (release 2.4.3)
       H    15.78611   12.51353  -11.70385
       O    16.66589   12.26056  -11.42527
      H1    16.86557   12.87868  -10.70674
       H    17.38427   13.28181  -15.56722
       O    18.33700   13.46642  -15.43561
      H1    18.80765   13.09790  -16.20322
       H    18.10544   12.47927   -8.43832
       O    17.84979   13.09028   -9.11423
      H1    18.62153   13.51680   -9.46155
       H    19.79245   11.73222  -12.01500
       O    19.31498   11.80301  -12.81202
      H1    18.41292   11.89639  -12.58411
       H    19.15866    8.51744  -14.57451
       O    19.90447    8.80156  -13.99389
      H1    19.79688    9.69110  -13.58217
       H    16.63182   10.51461  -12.97771
       O    16.56632    9.65094  -13.41325
      H1    16.18669    9.70086  -14.29790

