18
frame 2 | Written by MDAnalysis XYZWriter (release 2.4.3)
       H     1.26357   10.23668   -2.06300
       O     1.70408    9.37291   -2.22049
      H1     2.29088    9.32153   -1.48350
       H     0.55632   12.79837   -1.09560
       O     1.11222   12.07726   -1.47133
      H1     1.94346   12.50419   -1.68220
       H     2.67752   12.11240   -5.06146
       O     3.27646   11.42744   -4.72893
      H1     2.67578   10.94147   -4.16745
       H     1.60324   11.50574    2.04293
       O     2.03356   11.27812    1.23733
      H1     1.43213   11.49941    0.47966
       H     0.11070   12.64320   -4.25947
       O    -0.47595   11.94609   -4.47651
      H1    -0.73907   11.54305   -3.66155
       H     3.56333   14.22933   -1.56079
       O     3.39854   13.54167   -2.22854
      H1     4.16587   12.95629   -2.24789

