18
frame 2 | Written by MDAnalysis XYZWriter (release 2.4.3)
       H   -16.71445  -11.49030    0.26361
       O   -17.14509  -11.27876   -0.58209
      H1   -18.02353  -11.70815   -0.39161
       H   -18.86797  -11.62400    2.32958
       O   -19.55226  -11.12861    1.76685
      H1   -19.40926  -10.24743    2.12586
       H   -19.95680  -12.21822   -1.00705
       O   -19.22874  -12.81502   -1.16662
      H1   -18.83220  -12.53714   -2.00936
       H   -18.12765   -9.71869   -0.48493
       O   -18.84900   -9.08555   -0.61327
      H1   -18.52218   -8.58959   -1.41516
       H   -18.68121  -13.75831    0.24641
       O   -18.29264  -14.07791    1.10516
      H1   -17.36148  -14.05277    0.83803
       H   -19.07750  -15.66157    0.98876
       O   -19.52156  -16.54659    1.00056
      H1   -19.60088  -16.74611    0.04804

