18
frame 3 | Written by MDAnalysis XYZWriter (release 2.4.3)
       H   -13.46250  -10.78103   16.74120
       O   -12.96985  -11.59573   16.90806
      H1   -12.39127  -11.31086   17.60428
       H   -12.72146  -10.11575   11.46318
       O   -11.93942  -10.48617   11.83196
      H1   -12.13920  -11.39479   11.86775
       H   -16.81318   -9.00536   13.48741
       O   -16.54754   -8.71004   14.38592
      H1   -15.62502   -8.95220   14.42811
       H   -13.46044  -12.10939   13.23561
       O   -14.13073  -11.54220   13.60179
      H1   -14.91866  -11.53487   13.05911
       H   -14.02878   -8.46021   11.30424
       O   -14.28204   -9.32860   10.85198
      H1   -14.51555   -8.94834    9.97724
       H   -13.84720   -9.89705   14.05551
       O   -13.79305   -8.91650   14.23433
      H1   -13.56993   -8.36871   13.45699

