18
frame 3 | Written by MDAnalysis XYZWriter (release 2.4.3)
       H    17.45820   -8.99390   19.82179
       O    17.81003   -9.81918   19.34388
      H1    18.69198   -9.91019   19.79203
       H    16.42718   -9.41971   18.14338
       O    15.77959   -9.10542   17.50651
      H1    15.14421   -8.57865   17.98620
       H    15.65971   -5.78142   17.05212
       O    15.16240   -5.76278   17.85570
      H1    14.37824   -5.27868   17.59085
       H    17.68267   -6.32028   15.55451
       O    17.21181   -5.45427   15.69389
      H1    17.93088   -4.77627   15.60675
       H    18.90106   -7.85557   14.49102
       O    18.58484   -8.07332   15.38031
      H1    19.36825   -8.48314   15.81871
       H    19.51809   -7.52534   18.03699
       O    19.39140   -6.71797   18.55856
      H1    18.51916   -6.75532   19.00793

