18
frame 0 | Written by MDAnalysis XYZWriter (release 2.4.3)
       H    -2.68699   13.78505    3.86905
       O    -2.80705   14.69596    3.61132
      H1    -3.43905   14.68461    2.87743
       H     1.49630   13.23546    5.98895
       O     1.76324   13.45403    6.88936
      H1     1.97788   12.57396    7.26320
       H    -0.12193   15.35645    2.58920
       O     0.32729   14.52842    2.44960
      H1     1.21251   14.75160    2.04151
       H    -2.37586   11.98566    4.95263
       O    -2.04680   12.11682    3.97204
      H1    -2.12669   11.30042    3.49749
       H     0.95389   11.53443    2.81966
       O     1.56161   11.11712    2.22031
      H1     1.19941   11.44440    1.32533
       H    -0.22292   12.47997    4.37528
       O     0.66573   12.81302    4.45730
      H1     0.73112   13.59603    3.84796

