18
frame 3 | Written by MDAnalysis XYZWriter (release 2.4.3)
       H   -14.45383   12.10878   -5.44468
       O   -14.64447   12.83017   -6.08233
      H1   -13.80306   13.13646   -6.45024
       H   -14.89507   13.30791   -2.42898
       O   -14.12245   12.67219   -2.45809
      H1   -13.98178   12.51203   -1.51317
       H   -14.27570   11.43363   -3.49530
       O   -14.51025   10.77725   -4.25030
      H1   -15.51313   10.79381   -4.21063
       H   -11.37166   12.59150   -4.02886
       O   -11.58916   13.44730   -3.62156
      H1   -12.28238   13.30810   -2.97033
       H   -16.41066   14.81834   -1.67363
       O   -16.54547   14.37455   -2.59325
      H1   -17.55872   14.43463   -2.78695
       H   -11.76524   13.43767   -0.17606
       O   -12.68209   13.15871   -0.04215
      H1   -13.16639   13.98777   -0.15965

