18
frame 4 | Written by MDAnalysis XYZWriter (release 2.4.3)
       H    18.67162   16.32831   -8.41406
       O    17.75427   16.23028   -8.23878
      H1    17.66418   16.39390   -7.27217
       H    13.21917   17.52983  -10.22734
       O    13.61959   16.67255  -10.00301
      H1    13.28089   15.98651  -10.63103
       H    16.47170   17.04583  -12.31577
       O    15.97742   17.86684  -12.01617
      H1    15.11012   17.56584  -11.65401
       H    18.77449   18.80576  -12.67724
       O    19.37793   18.49877  -13.44121
      H1    18.95602   17.64851  -13.71787
       H    16.17752   18.57515  -10.02727
       O    16.89162   18.85342   -9.38641
      H1    17.28469   18.00191   -9.00524
       H    15.03535   15.36180   -9.93828
       O    15.87946   14.82073   -9.85498
      H1    16.45831   15.30886   -9.23283

