18
frame 4 | Written by MDAnalysis XYZWriter (release 2.4.3)
       H   -12.83907  -13.06788  -17.55492
       O   -13.54149  -12.84113  -16.99232
      H1   -13.04806  -12.29401  -16.37456
       H   -10.11915  -11.56064  -18.50591
       O   -10.79287  -11.77341  -19.11929
      H1   -10.47446  -11.25541  -19.87726
       H   -10.32887   -8.30335  -19.13784
       O    -9.65215   -7.66335  -19.14259
      H1    -8.91206   -8.12926  -18.73851
       H   -15.06736  -10.15664  -17.00784
       O   -14.45282   -9.58940  -16.56468
      H1   -14.50678  -10.03844  -15.68462
       H   -12.90082   -9.45117  -17.51511
       O   -11.98686   -9.60359  -17.87658
      H1   -12.13824  -10.42124  -18.31445
       H   -11.73179   -9.60410  -16.24839
       O   -11.67756   -9.29769  -15.30437
      H1   -11.35120  -10.06694  -14.77414

