18
frame 3 | Written by MDAnalysis XYZWriter (release 2.4.3)
       H     9.39542   14.97993    8.61427
       O     8.54223   14.60764    8.48960
      H1     8.71878   13.88537    7.90663
       H     9.75713   14.53199    5.39127
       O    10.18258   13.68136    5.44418
      H1    11.15257   13.86016    5.47929
       H     8.79985   16.44851    6.01600
       O     9.19708   16.12640    5.20497
      H1     8.43109   16.22868    4.57115
       H    10.53394   11.09742    7.49205
       O     9.75732   11.22183    6.89619
      H1     9.78749   12.14380    6.58292
       H    10.75930   18.24042    6.50545
       O    10.89742   18.11549    5.53556
      H1    10.35740   17.30351    5.28806
       H     9.45807   13.29014    3.64221
       O     9.48752   13.36654    2.72175
      H1    10.44472   13.21410    2.52521

