18
frame 3 | Written by MDAnalysis XYZWriter (release 2.4.3)
       H   -10.23946   16.86955   -8.58805
       O    -9.81652   17.22028   -9.34888
      H1    -9.06687   17.72852   -9.03848
       H   -10.41179   18.78862   -5.15367
       O   -10.16831   17.93344   -4.81261
      H1    -9.29090   17.81927   -5.20647
       H    -4.94628   16.27507   -5.41225
       O    -5.44083   17.08101   -5.58590
      H1    -5.72579   17.42390   -4.71867
       H    -7.27886   18.52233   -7.67443
       O    -6.94828   19.09350   -8.33454
      H1    -6.46936   18.41262   -8.86095
       H    -8.11674   16.26849   -7.23282
       O    -7.97320   17.10508   -6.75611
      H1    -7.19260   16.89873   -6.26489
       H    -4.75313   16.46556   -9.17912
       O    -5.22716   17.11032   -9.71294
      H1    -4.62014   17.86529   -9.71440

