18
frame 3 | Written by MDAnalysis XYZWriter (release 2.4.3)
       H    17.71774   14.63698   -5.38727
       O    16.76357   14.64098   -5.30466
      H1    16.29973   14.46927   -6.15983
       H    18.17087   16.77950   -7.66659
       O    17.22810   16.81043   -7.53885
      H1    17.18058   16.47158   -6.64309
       H    19.83048   15.72953   -3.89918
       O    19.21824   16.20664   -4.50019
      H1    18.69476   16.82812   -3.93706
       H    16.37306   18.65465   -9.94000
       O    16.75859   18.94402   -9.04526
      H1    16.91969   18.12656   -8.52807
       H    15.41308   15.51422   -9.72515
       O    16.25085   15.12107   -9.68073
      H1    16.55849   15.45254   -8.82164
       H    18.69898   15.55664  -10.13676
       O    19.50520   15.01982  -10.25647
      H1    20.08033   15.37632   -9.56636

