18
frame 3 | Written by MDAnalysis XYZWriter (release 2.4.3)
       H    -6.82624  -16.36607    4.74713
       O    -6.15412  -17.13875    4.71389
      H1    -5.63542  -17.01448    3.93742
       H    -9.36185  -17.08277    2.61255
       O    -8.49376  -17.49172    2.76144
      H1    -8.56029  -17.84542    3.62483
       H    -7.02808  -16.20383    2.49519
       O    -6.22234  -15.62645    2.35833
      H1    -6.15092  -15.60151    1.41202
       H    -6.19143  -12.52400    4.31411
       O    -5.42887  -12.96836    3.79807
      H1    -5.81376  -13.84037    3.51755
       H    -3.35654  -17.23035    2.10862
       O    -4.14788  -17.59950    2.51286
      H1    -4.81223  -16.98433    2.31258
       H    -7.00528  -16.27199   -1.01624
       O    -6.47502  -15.66485   -0.45651
      H1    -6.95923  -14.82299   -0.33533

