18
frame 3 | Written by MDAnalysis XYZWriter (release 2.4.3)
       H     6.22668    4.03943   10.65852
       O     5.48756    3.37780   10.70989
      H1     5.80646    2.45759   10.88508
       H     7.87438   -2.03394   11.16816
       O     7.58057   -1.51836   10.42295
      H1     7.09903   -2.24462    9.98473
       H     2.29610   -0.16292    9.81559
       O     2.25606    0.51006    9.08214
      H1     3.18221    0.78197    8.90881
       H     6.05160    1.58215   14.08176
       O     6.89286    1.48231   13.57028
      H1     6.52954    0.91041   12.90918
       H     6.19792    0.08274   10.83054
       O     5.57813    0.70395   11.23635
      H1     4.69060    0.28489   11.33730
       H     3.01170    1.59151   13.09919
       O     2.96295    0.85283   12.43948
      H1     2.12086    0.97218   11.94676

