18
frame 3 | Written by MDAnalysis XYZWriter (release 2.4.3)
       H   -14.24242  -10.30630  -12.65853
       O   -14.59528  -10.87338  -13.37718
      H1   -15.02705  -10.23509  -13.92376
       H   -14.65890   -9.93613  -16.54134
       O   -13.94960   -9.49698  -16.00357
      H1   -13.66116  -10.18195  -15.41230
       H   -13.87412  -12.04040  -12.31854
       O   -13.68836  -12.70470  -11.59112
      H1   -12.77026  -12.60667  -11.39713
       H   -16.60793  -10.90061  -17.55927
       O   -16.29274  -10.81838  -16.65368
      H1   -16.93164  -10.28459  -16.17897
       H   -17.69133  -10.33005  -13.73962
       O   -17.97675  -11.22214  -13.62036
      H1   -17.64147  -11.49091  -12.76698
       H   -18.34968   -8.67816  -15.47184
       O   -17.45513   -8.89528  -15.11370
      H1   -16.96044   -8.20043  -15.60382

