18
frame 3 | Written by MDAnalysis XYZWriter (release 2.4.3)
       H    -2.05410  -11.28038  -17.29481
       O    -1.48139  -12.04000  -17.58192
      H1    -1.66466  -12.15343  -18.54823
       H     2.42235  -11.19269  -17.63133
       O     2.08965  -10.64636  -16.90946
      H1     2.82007  -10.09562  -16.51865
       H     2.44446   -9.05666  -18.89005
       O     1.99608   -9.23078  -19.73674
      H1     2.61111   -9.10538  -20.48397
       H     3.19193  -13.27890  -18.40372
       O     3.74563  -13.96849  -18.14733
      H1     4.01415  -13.94112  -17.20613
       H     1.30696  -12.14066  -19.01711
       O     2.16066  -11.78503  -19.29646
      H1     2.00595  -10.83808  -19.38708
       H    -0.70391  -11.09471  -15.08039
       O    -0.04191  -10.40757  -15.17913
      H1     0.69475  -10.63546  -15.79379

