18
frame 3 | Written by MDAnalysis XYZWriter (release 2.4.3)
       H   -12.91616   -6.49236   -9.57514
       O   -13.63568   -5.91006   -9.23752
      H1   -13.24333   -5.05855   -9.46709
       H   -13.17538   -9.51658  -10.15929
       O   -13.65518   -9.69861  -10.97318
      H1   -14.61722   -9.69496  -10.76200
       H   -14.24242  -10.30630  -12.65853
       O   -14.59528  -10.87338  -13.37718
      H1   -15.02705  -10.23509  -13.92376
       H   -11.67962   -7.86187   -9.31465
       O   -11.15883   -7.22322   -9.86993
      H1   -11.54990   -7.42767  -10.72564
       H   -13.10846   -8.40158  -11.79696
       O   -12.97576   -7.49001  -12.14755
      H1   -12.39692   -7.67864  -12.92804
       H   -15.90120   -4.87412  -12.32437
       O   -15.63804   -5.04080  -11.39916
      H1   -15.13617   -5.86862  -11.26859

