18
frame 4 | Written by MDAnalysis XYZWriter (release 2.4.3)
       H   -10.25164   14.24773  -14.26680
       O   -10.63413   13.71682  -13.60660
      H1   -10.08756   12.91525  -13.74701
       H   -12.62228   13.80836  -14.02040
       O   -13.49110   13.49062  -14.19341
      H1   -13.38199   13.37956  -15.13656
       H    -9.88510   10.76844  -15.41607
       O   -10.61871   10.11430  -15.56798
      H1   -10.54973    9.66946  -14.68512
       H    -7.92752   15.79917  -16.22122
       O    -8.32366   14.92328  -15.99096
      H1    -8.02073   14.82246  -15.12874
       H   -10.11148   14.53373  -11.78306
       O   -10.12288   14.48722  -10.84060
      H1   -10.27661   15.44317  -10.52994
       H    -7.92915   11.79409  -14.75472
       O    -8.77668   11.81164  -14.35528
      H1    -8.63006   11.31018  -13.53222

