18
frame 4 | Written by MDAnalysis XYZWriter (release 2.4.3)
       H   -17.57990   20.21262   10.41212
       O   -17.15977   19.89383    9.61747
      H1   -17.31110   18.94020    9.62722
       H   -14.90208   16.30752    9.08919
       O   -14.15705   16.72922    9.60419
      H1   -13.85749   16.05648   10.22859
       H   -17.15074   16.63956   10.39380
       O   -17.76557   17.38474   10.11638
      H1   -18.62905   17.02546    9.79031
       H   -18.71106   14.51697   13.91862
       O   -19.01593   14.95047   13.04370
      H1   -18.56587   15.84418   13.05935
       H   -17.14940   14.31524   11.11418
       O   -16.51162   14.98458   10.78696
      H1   -15.60056   14.81616   11.07982
       H   -18.09332   17.60759   11.92690
       O   -18.30766   17.72343   12.86999
      H1   -17.49541   18.23436   13.19613

