18
frame 3 | Written by MDAnalysis XYZWriter (release 2.4.3)
       H     6.93011    4.89149    4.45396
       O     6.41349    4.60368    5.17606
      H1     6.63171    5.25512    5.89512
       H     9.42300    7.66285    4.20913
       O     9.16281    6.89186    4.72410
      H1     9.72209    6.12726    4.45016
       H    11.63930    7.79919    7.15809
       O    11.49387    8.39016    6.35577
      H1    10.51202    8.33670    6.28801
       H     8.57293    7.48413    6.60379
       O     8.68408    7.73540    7.51547
      H1     8.12371    8.51757    7.56580
       H     9.67854   10.32899    5.33871
       O     9.35818    9.83628    4.59098
      H1     8.64166   10.37960    4.20864
       H     7.42637    6.52920    7.64262
       O     6.76010    5.85227    7.49519
      H1     5.91739    6.31522    7.70834

