18
frame 3 | Written by MDAnalysis XYZWriter (release 2.4.3)
       H    -0.94042    5.98592  -17.72213
       O    -1.32714    6.42195  -16.93711
      H1    -1.85792    7.18525  -17.16999
       H     0.03278    7.53790  -16.61676
       O     0.53650    8.37683  -16.54410
      H1     1.09340    8.29328  -15.75876
       H    -0.18866    1.98883  -16.05879
       O     0.18454    2.89073  -16.17502
      H1    -0.40394    3.48957  -15.73796
       H    -2.70119    5.76096  -15.88735
       O    -3.27778    5.43506  -15.15811
      H1    -2.62836    5.13200  -14.53926
       H    -1.87522    5.03426  -19.44627
       O    -0.93314    5.21855  -19.44126
      H1    -0.41572    4.35778  -19.39275
       H    -3.21318    8.81547  -17.49938
       O    -3.67913    8.20221  -16.86129
      H1    -4.09670    8.76783  -16.20777

