18
frame 3 | Written by MDAnalysis XYZWriter (release 2.4.3)
       H    -2.97212  -11.42652   -3.97952
       O    -3.07378  -12.05559   -4.76670
      H1    -2.69396  -11.71906   -5.59395
       H    -4.20121  -14.00918   -7.23796
       O    -4.38269  -14.78803   -6.69908
      H1    -4.79521  -14.48540   -5.83278
       H    -3.96453  -13.58565  -10.69335
       O    -3.12004  -13.56710  -10.23726
      H1    -3.14205  -13.08558   -9.45155
       H    -3.09637  -11.40358   -7.91090
       O    -3.61441  -12.20794   -7.77195
      H1    -4.47168  -11.85253   -7.56955
       H    -4.71060  -13.14408   -4.46613
       O    -5.39406  -13.74179   -4.18157
      H1    -5.01678  -13.96657   -3.33940
       H    -6.84529  -11.11569   -6.96691
       O    -6.39325  -11.92109   -7.32330
      H1    -6.63793  -11.97511   -8.29842

