18
frame 5 | Written by MDAnalysis XYZWriter (release 2.4.3)
       H   -15.47486  -18.19609   11.46935
       O   -15.50467  -17.73069   12.33119
      H1   -14.59311  -17.85043   12.55581
       H   -12.25942  -17.20080   11.48390
       O   -12.72817  -17.19734   12.38907
      H1   -12.62608  -16.32308   12.79009
       H    -8.67155  -17.48340   16.86784
       O    -8.98091  -18.30117   16.50516
      H1    -8.56801  -18.43659   15.64070
       H   -11.04322  -16.14195   14.89734
       O   -11.28131  -16.76705   15.61950
      H1   -10.65847  -17.38797   15.77552
       H   -14.00819  -18.24742   16.27316
       O   -13.12272  -18.59839   16.14410
      H1   -12.57142  -17.79877   15.84890
       H   -11.93523  -19.47256   14.92382
       O   -11.60068  -19.46670   14.05346
      H1   -12.06865  -18.72694   13.64310

