18
frame 4 | Written by MDAnalysis XYZWriter (release 2.4.3)
       H    16.29141   -1.04432   12.89210
       O    16.09719   -1.66602   13.64086
      H1    15.58241   -1.05340   14.25362
       H    17.12164   -1.72176   18.05703
       O    16.27719   -2.05474   17.71236
      H1    15.69730   -1.66831   18.40659
       H    16.57808    0.43638   15.98769
       O    15.82958   -0.16103   15.93397
      H1    15.91951   -0.87839   16.61061
       H    15.48373   -3.66525   17.48476
       O    15.27785   -4.59817   17.28133
      H1    16.12317   -5.05905   17.04959
       H    14.45203    1.07847   16.41287
       O    14.14194    2.02205   16.47386
      H1    13.17803    2.02354   16.56051
       H    19.14876    0.38699   14.47246
       O    18.73805   -0.45996   14.26329
      H1    17.74677   -0.43753   14.33519

