18
frame 5 | Written by MDAnalysis XYZWriter (release 2.4.3)
       H    19.63539  -17.78254   -2.84511
       O    19.17351  -17.17814   -3.50964
      H1    18.35503  -16.91589   -3.12482
       H    15.02870  -15.86334   -5.87571
       O    15.10167  -16.70531   -5.44291
      H1    15.62491  -17.35641   -5.93205
       H    13.81066  -17.52683   -2.49822
       O    14.09682  -17.01760   -1.73760
      H1    14.09320  -17.70655   -1.04997
       H    17.10011  -14.73272   -2.65255
       O    17.44644  -13.83446   -2.33485
      H1    16.79143  -13.15994   -2.59740
       H    16.05972  -16.23110   -3.97764
       O    16.63084  -16.24813   -3.18757
      H1    15.96814  -16.58359   -2.51717
       H    16.48459  -19.09262   -2.01752
       O    17.43322  -19.01809   -1.87269
      H1    17.82917  -19.75338   -2.39305

