18
frame 4 | Written by MDAnalysis XYZWriter (release 2.4.3)
       H    16.97818   14.82564   -4.98903
       O    16.54029   15.58344   -5.44213
      H1    16.05004   15.07757   -6.05945
       H    18.67162   16.32831   -8.41406
       O    17.75427   16.23028   -8.23878
      H1    17.66418   16.39390   -7.27217
       H    18.24300   15.91936   -3.92316
       O    19.06813   16.25763   -3.51436
      H1    18.75819   17.07565   -3.10466
       H    16.17752   18.57515  -10.02727
       O    16.89162   18.85342   -9.38641
      H1    17.28469   18.00191   -9.00524
       H    15.03535   15.36180   -9.93828
       O    15.87946   14.82073   -9.85498
      H1    16.45831   15.30886   -9.23283
       H    14.77203   17.87775   -5.03293
       O    14.94156   17.35374   -4.18203
      H1    15.52307   16.67926   -4.58673

