18
frame 4 | Written by MDAnalysis XYZWriter (release 2.4.3)
       H   -15.97800  -12.06378   -0.66182
       O   -16.57190  -12.04443   -1.41291
      H1   -16.95362  -12.91809   -1.43645
       H   -17.71309  -11.89999    1.58401
       O   -18.38035  -11.25476    1.31213
      H1   -18.30388  -10.47342    1.93780
       H   -17.50729  -14.33758    2.21241
       O   -17.17624  -13.43755    2.51762
      H1   -16.98543  -13.60658    3.42511
       H   -15.82530  -12.84120    1.39494
       O   -15.14997  -12.59400    0.79644
      H1   -14.59738  -11.90202    1.22318
       H   -18.08912  -15.18157   -0.56314
       O   -18.11868  -15.95090    0.03294
      H1   -17.21689  -16.15098    0.24976
       H   -14.39162  -12.15062    3.64487
       O   -14.68484  -12.64622    4.39085
      H1   -14.46168  -12.09208    5.17091

