18
frame 4 | Written by MDAnalysis XYZWriter (release 2.4.3)
       H    13.45942   14.15047  -17.65583
       O    14.07389   14.76708  -18.08834
      H1    14.22685   15.54802  -17.48968
       H    16.48761   14.40716  -17.02828
       O    16.58722   14.44485  -16.06706
      H1    15.85216   13.77763  -15.84769
       H    17.61513   16.61500  -16.13859
       O    17.31059   17.33879  -16.62845
      H1    16.34886   17.24610  -16.84216
       H    18.58735   10.94744  -18.42530
       O    17.66579   11.09482  -18.27019
      H1    17.37263   12.05119  -18.42788
       H    12.92691   15.77801  -19.15902
       O    12.32369   16.45372  -19.37265
      H1    12.90733   17.16825  -19.70418
       H    16.40911   13.98563  -19.37812
       O    16.83283   13.71268  -18.60537
      H1    17.80714   13.86204  -18.71852

