18
frame 5 | Written by MDAnalysis XYZWriter (release 2.4.3)
       H     8.78960  -13.04580    0.06606
       O     8.04192  -13.04783   -0.55537
      H1     7.73916  -12.15951   -0.37400
       H     8.90684  -16.86320    0.17532
       O     9.41736  -16.42757    0.85136
      H1     9.05027  -16.73141    1.66525
       H     8.63479  -12.29779    3.85865
       O     8.02995  -13.04789    4.00822
      H1     7.88120  -13.35733    3.11552
       H     5.31150  -16.47579    0.96278
       O     4.82820  -15.93790    1.60104
      H1     5.56647  -15.33166    1.73359
       H     8.25793  -15.01121    1.44059
       O     7.34720  -14.59886    1.43581
      H1     7.26011  -13.90403    0.67800
       H     9.25053  -17.04479    4.31229
       O     9.30851  -16.55408    3.51179
      H1     9.38941  -15.67367    3.87232

