18
frame 5 | Written by MDAnalysis XYZWriter (release 2.4.3)
       H     4.73814   -6.35849    5.32105
       O     4.71577   -5.79238    6.14758
      H1     4.66340   -4.84019    5.85562
       H     6.40310   -5.97726    7.04817
       O     7.03677   -6.21405    7.76863
      H1     7.69573   -6.88546    7.37607
       H     6.93885   -3.60248    9.37070
       O     7.73803   -3.99399    9.17064
      H1     7.64519   -4.86778    8.77655
       H     7.77844   -5.14732    4.04197
       O     8.26106   -5.15065    4.81260
      H1     8.97651   -5.83281    4.81306
       H     5.42817   -7.39999    8.39715
       O     4.80960   -8.08172    8.06504
      H1     4.21731   -7.50226    7.55693
       H     8.06248   -3.65875    7.51487
       O     7.87687   -3.18389    6.65453
      H1     7.80914   -3.85837    5.93807

