18
frame 5 | Written by MDAnalysis XYZWriter (release 2.4.3)
       H     9.92310   -3.77453    5.67129
       O    10.61083   -3.32101    5.14495
      H1    10.80410   -3.87712    4.35724
       H    10.15320   -1.75174    4.87761
       O     9.65968   -0.91573    4.95838
      H1     8.74347   -1.22190    4.89760
       H     6.98511    0.18831    6.48604
       O     7.19423    0.96683    7.02662
      H1     7.67975    0.58502    7.77288
       H     9.60593    0.23527    8.64778
       O     8.84306    0.37863    9.22188
      H1     8.62263   -0.45426    9.71496
       H    11.77559    0.26838    7.38054
       O    10.85119    0.27098    7.47238
      H1    10.51481   -0.27791    6.74479
       H    10.49240    0.33070    4.29966
       O    10.99670    1.19724    4.14747
      H1    10.99957    1.25103    3.16111

