18
frame 4 | Written by MDAnalysis XYZWriter (release 2.4.3)
       H   -15.01273   19.79587  -11.09772
       O   -15.80020   19.17494  -11.28986
      H1   -16.54375   19.76057  -11.47280
       H   -13.84652   17.17086   -6.99016
       O   -13.55987   16.79132   -6.17111
      H1   -13.71989   15.84135   -6.27582
       H   -16.02124   18.97687   -9.69920
       O   -16.20246   18.59215   -8.79585
      H1   -15.84239   19.19584   -8.17767
       H   -18.71902   17.40967   -9.84200
       O   -18.67035   16.43963   -9.72261
      H1   -17.85513   16.34944   -9.22643
       H   -15.04036   17.15781   -9.13620
       O   -14.57539   16.28308   -9.21612
      H1   -14.27636   16.20258  -10.15429
       H   -15.75885   15.38466   -8.13680
       O   -16.48881   14.95213   -7.59177
      H1   -16.32930   13.97974   -7.46695

