18
frame 4 | Written by MDAnalysis XYZWriter (release 2.4.3)
       H    17.66590  -15.91897   -8.94075
       O    18.57943  -15.70145   -8.68160
      H1    18.88372  -16.49787   -8.26483
       H    14.36768  -12.58212  -12.46518
       O    14.55145  -12.36314  -11.56741
      H1    15.39535  -12.81916  -11.47557
       H    14.21827  -13.93543   -8.42789
       O    13.99613  -14.18161   -9.35294
      H1    13.70336  -13.34164   -9.82755
       H    15.92189  -15.09194   -9.67012
       O    16.23653  -15.94532   -9.91597
      H1    16.81898  -15.76773  -10.68277
       H    15.39493  -16.62845  -11.67297
       O    14.73531  -17.21900  -12.10849
      H1    14.45331  -17.85431  -11.41278
       H    12.90834  -15.27933  -10.18543
       O    12.43156  -15.70834  -10.94107
      H1    13.10354  -16.18100  -11.51461

