18
frame 5 | Written by MDAnalysis XYZWriter (release 2.4.3)
       H   -11.84764   17.09131   -2.12379
       O   -12.24061   17.10603   -1.20994
      H1   -11.49683   16.80385   -0.66358
       H   -12.46100   19.89491   -4.82662
       O   -11.63799   19.37957   -4.66184
      H1   -11.88938   18.49427   -4.95997
       H   -12.87250   14.37608   -4.22292
       O   -13.10843   14.83387   -5.03736
      H1   -12.52590   14.48297   -5.71756
       H   -10.37464   16.03115   -3.46988
       O   -10.85891   16.85724   -3.39109
      H1   -10.12323   17.53612   -3.22461
       H    -8.49077   18.00377   -4.07609
       O    -8.35401   17.85551   -3.14239
      H1    -7.93992   18.67654   -2.83161
       H   -10.34662   13.54440   -3.24078
       O    -9.45681   13.75266   -3.00037
      H1    -8.81138   13.21302   -3.54744

