18
frame 6 | Written by MDAnalysis XYZWriter (release 2.4.3)
       H    10.04401   -3.78204    5.08791
       O    10.83188   -3.27796    4.80842
      H1    11.26149   -3.64124    4.03365
       H     4.79203   -3.73103    5.30184
       O     4.91412   -4.53720    4.78085
      H1     4.10261   -4.64056    4.18036
       H     6.69196   -4.29282    8.67853
       O     7.53262   -4.80635    8.81081
      H1     7.40562   -5.53850    8.22738
       H     7.50123   -5.36405    3.36988
       O     7.86166   -5.49704    4.31843
      H1     8.47487   -6.25160    4.25399
       H     6.80909   -2.18870    5.73232
       O     6.31217   -1.42222    5.40676
      H1     6.38039   -1.39155    4.41904
       H     8.38486   -3.87994    6.83485
       O     8.18437   -3.45597    6.02173
      H1     7.91292   -4.22277    5.44606

