18
frame 6 | Written by MDAnalysis XYZWriter (release 2.4.3)
       H    17.27969  -18.66540  -11.86216
       O    17.91935  -17.90152  -11.96960
      H1    17.39435  -17.10989  -11.97246
       H    16.10267  -13.25244  -16.20123
       O    15.67395  -13.53327  -15.38906
      H1    16.19662  -14.25579  -15.07269
       H    18.67580  -11.94764  -15.11555
       O    19.10450  -12.78146  -14.79874
      H1    19.25940  -13.30395  -15.60326
       H    18.32784  -15.82957  -13.44859
       O    17.43073  -15.52309  -13.62817
      H1    17.45389  -14.64751  -13.15298
       H    18.14731  -13.26940  -11.62071
       O    17.77619  -13.05559  -12.47301
      H1    18.48281  -13.22325  -13.12966
       H    15.06042  -16.26070  -12.79621
       O    14.93244  -16.54873  -11.86012
      H1    14.87412  -17.50751  -11.91177

