18
frame 5 | Written by MDAnalysis XYZWriter (release 2.4.3)
       H   -13.85322   17.79257    9.05040
       O   -13.68392   18.33440    9.84408
      H1   -13.03070   17.92294   10.41037
       H   -17.61510   16.52534    9.86335
       O   -18.32485   17.16636   10.03812
      H1   -18.91182   16.93425    9.32763
       H   -15.65296   16.34392    6.34077
       O   -16.38588   16.26161    5.73109
      H1   -16.10401   16.40619    4.79341
       H   -13.54154   15.71812    7.55010
       O   -14.25154   16.30710    7.75023
      H1   -14.88042   15.92038    8.35606
       H   -16.27986   14.58725    9.08835
       O   -16.27502   15.49575    9.34717
      H1   -15.94379   15.63497   10.26095
       H   -17.26655   13.27925    8.49698
       O   -16.39802   12.87757    8.61154
      H1   -15.97451   13.17714    7.74728

