18
frame 5 | Written by MDAnalysis XYZWriter (release 2.4.3)
       H    -4.02124   -2.25652  -17.38991
       O    -3.64906   -2.80493  -16.62913
      H1    -4.26653   -2.55155  -15.99391
       H    -4.67316   -1.70602  -19.62354
       O    -4.36841   -1.09357  -18.95431
      H1    -3.60865   -0.68536  -19.37418
       H    -1.47818   -4.45959  -18.88475
       O    -2.18078   -3.80060  -19.04785
      H1    -2.34244   -3.27968  -18.25264
       H    -2.76470    0.16844  -16.52411
       O    -3.21070    0.58448  -15.72285
      H1    -2.48022    0.92011  -15.22630
       H    -0.62169   -0.86675  -17.28913
       O    -1.47246   -1.05434  -17.64698
      H1    -1.92094   -1.70372  -17.01822
       H     0.95588   -1.87354  -18.75014
       O     1.37775   -2.42626  -19.43102
      H1     2.29474   -2.23482  -19.37923

