18
frame 0 | Written by MDAnalysis XYZWriter (release 2.4.3)
       H   -14.73154   16.03449  -12.89529
       O   -15.09599   16.45970  -12.06019
      H1   -15.59725   15.86252  -11.51360
       H   -17.10173   15.77834  -13.45598
       O   -17.57331   16.03757  -14.26571
      H1   -17.02510   16.62649  -14.81081
       H   -12.37270   16.19104  -10.63304
       O   -12.99465   16.77463  -10.17106
      H1   -13.85450   16.48950  -10.55004
       H   -13.70665   18.49154  -15.84088
       O   -13.50954   18.22649  -14.93791
      H1   -13.53014   17.26301  -14.99552
       H   -12.31857   18.13819  -11.19294
       O   -12.33705   18.79245  -11.91710
      H1   -13.20054   19.15571  -12.02640
       H   -15.14987   18.64125  -12.45990
       O   -15.00534   19.48367  -12.02789
      H1   -15.49129   19.48305  -11.22084

