18
frame 5 | Written by MDAnalysis XYZWriter (release 2.4.3)
       H     2.78459  -10.95036   -4.47822
       O     1.87237  -10.93669   -4.66200
      H1     1.36540  -11.39065   -3.97168
       H     6.44371  -10.14634   -0.52186
       O     7.29854  -10.36581   -0.99523
      H1     7.45805   -9.56273   -1.53648
       H     5.45338   -9.25380   -4.39245
       O     5.23055  -10.08714   -4.84458
      H1     5.18051  -10.82350   -4.24511
       H     3.56532   -7.05220   -4.09206
       O     2.83012   -6.62512   -4.55689
      H1     2.57252   -7.36531   -5.11066
       H     6.58405  -10.27315   -5.74807
       O     7.46635  -10.27680   -6.21859
      H1     7.49282   -9.61471   -6.96703
       H     6.04902   -7.15622   -4.27134
       O     5.40463   -7.59388   -3.69348
      H1     5.52721   -7.19659   -2.82175

