18
frame 5 | Written by MDAnalysis XYZWriter (release 2.4.3)
       H    -6.46791    4.37914   11.03887
       O    -5.97868    4.85739   11.78088
      H1    -5.48213    4.16175   12.18589
       H    -0.46733   -0.94208   13.29661
       O    -1.28874   -0.98203   12.72022
      H1    -1.64541   -0.11972   12.83089
       H    -8.02651    1.25195   14.27009
       O    -7.41368    2.06679   14.17656
      H1    -7.98498    2.77290   13.79326
       H    -2.36360    2.22232   13.60635
       O    -2.80210    1.38401   13.80555
      H1    -2.86942    1.40290   14.72164
       H    -4.39658    1.98806   13.05040
       O    -5.09294    2.26103   12.52817
      H1    -5.89633    2.04457   13.08540
       H    -5.73077    0.71321    9.46325
       O    -4.94716    1.27304    9.39915
      H1    -4.62346    1.34478   10.29774

