18
frame 5 | Written by MDAnalysis XYZWriter (release 2.4.3)
       H    -7.54583   11.46865   -4.21827
       O    -7.55043   12.44839   -4.25315
      H1    -7.38254   12.66956   -5.18868
       H    -6.58060   14.49048   -9.77258
       O    -7.43251   14.77701   -9.45590
      H1    -7.29809   15.70805   -9.24146
       H    -4.39191   12.09680   -3.58540
       O    -4.65683   12.93701   -3.94529
      H1    -5.67471   12.88988   -3.99246
       H    -6.16751   15.23415   -6.70904
       O    -6.26825   16.17942   -6.75687
      H1    -5.71256   16.49273   -6.01721
       H    -9.56950   13.15163   -8.54736
       O    -9.45356   12.98017   -7.57622
      H1   -10.27932   13.34146   -7.25228
       H    -5.92281   12.42943   -6.79246
       O    -6.51481   13.25877   -6.81415
      H1    -7.34140   12.98672   -7.14634

