18
frame 6 | Written by MDAnalysis XYZWriter (release 2.4.3)
       H    -0.51649  -19.72463   -5.82508
       O     0.34732  -19.34063   -5.76889
      H1     0.38010  -18.74424   -6.55793
       H    -1.10838  -14.52336   -5.65540
       O    -0.79002  -13.58684   -5.80374
      H1    -1.47076  -12.96613   -6.15991
       H    -2.58964  -15.72540   -6.65530
       O    -1.88228  -16.09999   -6.09113
      H1    -1.22951  -16.47145   -6.68012
       H     0.69655  -16.36606   -7.31717
       O     0.22320  -17.16071   -7.45077
      H1     0.14815  -17.22988   -8.44865
       H     2.75484  -14.73118   -7.62310
       O     2.39879  -15.38481   -7.04542
      H1     2.50642  -15.04105   -6.12793
       H     3.16950  -18.56507   -9.00668
       O     3.49722  -18.78195   -8.11331
      H1     3.28400  -18.03819   -7.54194

