18
frame 0 | Written by MDAnalysis XYZWriter (release 2.4.3)
       H   -14.09285  -17.92423  -15.00881
       O   -13.56326  -17.90992  -15.80780
      H1   -12.66986  -18.22766  -15.55949
       H   -12.80534  -12.62668  -17.59042
       O   -12.20955  -12.43963  -16.83394
      H1   -11.66190  -13.21151  -16.78660
       H    -9.80908  -15.11419  -16.89010
       O   -10.47930  -14.44265  -16.64703
      H1   -10.06904  -13.89852  -15.92131
       H   -14.68351  -14.71921  -17.50512
       O   -14.88897  -15.36227  -18.20644
      H1   -13.96624  -15.51250  -18.58490
       H   -11.35612  -15.62506  -18.59649
       O   -12.28456  -15.95565  -18.52193
      H1   -12.52029  -16.05681  -17.59882
       H   -13.58254  -13.51466  -16.07343
       O   -14.36314  -14.03441  -15.77087
      H1   -15.13981  -13.48846  -15.98728

