18
frame 5 | Written by MDAnalysis XYZWriter (release 2.4.3)
       H    16.32529    9.53190   -6.63553
       O    15.85490   10.24099   -7.11138
      H1    15.20391   10.58757   -6.49094
       H    12.97987   12.01289   -4.77773
       O    13.35867   12.70969   -4.23171
      H1    12.73803   13.15851   -3.62752
       H    12.72027   12.08004   -7.45278
       O    11.95621   12.01784   -8.05115
      H1    11.58340   12.90062   -8.01792
       H    12.25764   10.51912   -6.31363
       O    13.12789   10.78211   -6.00927
      H1    13.53055   10.08650   -5.48955
       H    14.30173    7.71588   -4.59588
       O    13.57026    8.36382   -4.73274
      H1    13.68439    8.99475   -3.97282
       H    13.55235    7.90099   -7.38914
       O    13.56400    6.97804   -7.57842
      H1    14.50901    6.72255   -7.53302

