18
frame 6 | Written by MDAnalysis XYZWriter (release 2.4.3)
       H     1.20610  -13.49181  -16.19026
       O     1.11962  -12.54991  -16.28675
      H1     0.23085  -12.42917  -16.55010
       H     0.98789  -15.75613  -12.45673
       O     0.58059  -15.46387  -13.31799
      H1     0.53139  -14.50986  -13.21324
       H    -2.35313  -10.97023  -12.81536
       O    -1.57114  -11.48543  -12.64628
      H1    -1.77454  -12.29978  -12.19470
       H     1.17226  -12.62815  -14.39524
       O     0.97612  -12.79025  -13.45042
      H1     0.12392  -12.26274  -13.34475
       H     0.85303  -10.77520  -14.45308
       O     1.18675   -9.96736  -14.06148
      H1     1.89724   -9.74981  -14.68081
       H     2.56364  -11.44754  -12.44506
       O     2.67284  -10.95973  -11.63379
      H1     1.97351  -10.27994  -11.55922

