18
frame 6 | Written by MDAnalysis XYZWriter (release 2.4.3)
       H   -12.42369    1.41045   18.42218
       O   -11.54630    1.58352   18.07498
      H1   -10.86301    1.20258   18.58379
       H   -14.45111    1.90170   18.55795
       O   -14.32970    1.02943   18.17469
      H1   -14.58582    0.41881   18.90049
       H    -9.61473   -2.05257   19.64741
       O   -10.24773   -1.29729   19.79213
      H1   -10.91173   -1.20116   19.06936
       H   -13.05983   -0.86591   17.85816
       O   -12.46627   -1.60876   18.19972
      H1   -12.03035   -1.90994   17.38348
       H   -14.21381   -4.44902   17.87480
       O   -14.60297   -3.80096   18.42793
      H1   -13.85218   -3.26064   18.70371
       H   -11.67764    1.17046   16.15572
       O   -11.60372    0.65859   15.36157
      H1   -12.22095   -0.09120   15.49505

