18
frame 5 | Written by MDAnalysis XYZWriter (release 2.4.3)
       H    -8.84865   14.56953    6.05082
       O    -9.23651   15.38830    6.48645
      H1    -9.12661   16.06886    5.81571
       H    -8.81611   13.03335    2.62740
       O    -8.54255   12.05549    2.68946
      H1    -8.67828   11.56268    1.86080
       H   -10.59277   16.02880    3.25325
       O   -11.05344   16.82090    3.53828
      H1   -11.77054   16.45893    4.08903
       H    -9.78904   14.00192    3.48456
       O    -9.32227   14.69354    3.05785
      H1    -9.58116   14.69468    2.12172
       H   -11.28758   12.45148    4.14321
       O   -10.68984   13.09448    4.51053
      H1   -10.04953   12.82762    5.19967
       H   -12.44838   14.42773    4.84076
       O   -12.78356   15.28278    5.09614
      H1   -13.65524   14.95658    5.47177

