18
frame 0 | Written by MDAnalysis XYZWriter (release 2.4.3)
       H    16.78802  -16.11478   -5.67797
       O    17.03866  -16.96603   -5.28008
      H1    16.34927  -17.54731   -5.58216
       H    11.57216  -18.01457   -5.77672
       O    12.10484  -17.80435   -5.05461
      H1    12.85748  -17.30142   -5.51909
       H    13.41272  -15.33118   -6.24156
       O    14.16347  -15.88573   -6.49196
      H1    14.18966  -15.86674   -7.44381
       H    15.61428  -14.60631   -6.02132
       O    16.25572  -13.89807   -6.24171
      H1    16.12790  -13.22240   -5.57397
       H    16.29887  -15.29322   -9.33603
       O    15.48876  -14.79247   -9.23175
      H1    15.67628  -14.12463   -8.53115
       H    11.90835  -13.99992   -4.67135
       O    11.80089  -14.08877   -5.66528
      H1    11.65455  -13.18978   -5.90883

