18
frame 6 | Written by MDAnalysis XYZWriter (release 2.4.3)
       H   -15.49440   13.46455   11.31716
       O   -15.59960   12.51478   11.03726
      H1   -16.16579   12.48208   10.25974
       H   -13.70653    9.92711    6.54965
       O   -13.17601    9.44575    7.22853
      H1   -13.83317    9.18965    7.90612
       H   -15.44298    8.84627    9.80637
       O   -15.28240    9.58244    9.19310
      H1   -15.01792   10.28079    9.81184
       H   -16.75838    9.63660    8.11211
       O   -17.59278    9.38222    7.71371
      H1   -17.86213   10.06071    7.04010
       H   -14.49191   10.43427   12.44341
       O   -13.92796   10.63423   11.70449
      H1   -14.42406   11.37418   11.32832
       H   -12.08663   10.14367    8.73186
       O   -11.64076   10.37717    9.54385
      H1   -12.40925   10.40432   10.18370

