18
frame 6 | Written by MDAnalysis XYZWriter (release 2.4.3)
       H    -9.94197    5.21203   -7.30349
       O    -9.96739    5.59191   -8.19626
      H1    -9.66499    4.91284   -8.82102
       H   -11.27332    9.93850   -9.51600
       O   -12.08542    9.63502   -9.92047
      H1   -12.38560   10.45789  -10.42761
       H   -12.26105    5.62486  -10.37185
       O   -12.03215    5.40126  -11.29175
      H1   -12.89982    5.28301  -11.73962
       H   -13.16783    6.64407   -5.70893
       O   -13.64798    6.40029   -6.50403
      H1   -13.23770    6.71108   -7.33923
       H   -12.31705    7.84996   -9.44476
       O   -12.40134    7.08185   -8.86701
      H1   -11.51592    6.79890   -8.64749
       H   -11.46712    8.90082   -6.33901
       O   -10.86856    8.19926   -6.68177
      H1   -10.66857    7.68091   -5.90522

