18
frame 6 | Written by MDAnalysis XYZWriter (release 2.4.3)
       H    -7.12351   16.03488   -1.94795
       O    -6.67854   15.79849   -1.14768
      H1    -6.91525   14.83924   -0.87597
       H    -5.35943   12.28795   -2.94034
       O    -5.38906   13.24531   -3.05805
      H1    -6.34057   13.38615   -3.36045
       H    -4.64992   14.51757    2.31834
       O    -4.37210   15.11816    1.62001
      H1    -4.91130   15.87510    1.83592
       H    -4.47353   12.12364    3.67098
       O    -4.77382   12.42388    2.79887
      H1    -5.68500   12.19562    2.69778
       H    -6.78795   10.53425   -0.25935
       O    -5.81940   10.76489   -0.01832
      H1    -5.73228   11.75915   -0.04986
       H    -5.41636   13.30228   -1.02779
       O    -5.83831   13.29414   -0.14014
      H1    -5.45124   13.88790    0.54517

