18
frame 7 | Written by MDAnalysis XYZWriter (release 2.4.3)
       H   -16.99888   15.69492  -13.28707
       O   -17.28748   15.75717  -14.18515
      H1   -17.94937   16.47422  -14.26342
       H   -16.37504   19.89563  -16.35476
       O   -16.19188   19.04967  -15.87570
      H1   -15.79494   18.59183  -16.62614
       H   -15.34974   18.69667  -12.51822
       O   -16.08503   18.06579  -12.40135
      H1   -16.88199   18.57556  -12.65630
       H   -11.45194   17.22039  -15.47141
       O   -11.59277   17.80467  -14.70779
      H1   -12.55498   17.87401  -14.58099
       H   -14.53716   16.49443  -15.09691
       O   -14.17146   17.29681  -14.73698
      H1   -14.98084   17.57051  -14.28077
       H   -16.22621   15.14659  -17.29153
       O   -16.59923   15.93377  -16.88167
      H1   -16.71431   15.73186  -15.95428

