18
frame 7 | Written by MDAnalysis XYZWriter (release 2.4.3)
       H     8.34323   18.04023   13.31912
       O     8.70033   17.22456   12.97137
      H1     8.32352   16.60934   13.61077
       H     6.99368   18.39840   15.51826
       O     6.65061   18.95725   14.78859
      H1     5.70279   18.96759   14.95543
       H     6.57469   15.01302   14.03015
       O     7.52592   15.19342   14.37242
      H1     7.77440   14.30254   14.64399
       H     7.91917   14.66063   17.47916
       O     7.13591   14.20002   17.82654
      H1     7.11426   14.62823   18.69071
       H     6.63176   16.22695   16.51516
       O     6.91025   17.11910   16.86352
      H1     6.53812   17.26306   17.75034
       H    10.01959   16.48062   17.62816
       O     9.73550   17.39075   17.57306
      H1     8.83764   17.33279   17.37821

