18
frame 6 | Written by MDAnalysis XYZWriter (release 2.4.3)
       H    16.97648  -15.15542    0.55106
       O    17.38741  -14.33869    0.27570
      H1    17.23559  -14.24369   -0.68724
       H    14.68752  -12.65352    1.50073
       O    15.07321  -12.93223    0.67752
      H1    15.95969  -13.31908    0.76408
       H    15.27528  -18.65227   -1.15254
       O    15.74423  -17.83065   -1.26328
      H1    15.79840  -17.44125   -0.35777
       H    16.98706  -14.93828   -2.64556
       O    16.96819  -14.03809   -2.43733
      H1    16.20049  -13.63726   -2.86089
       H    15.99329  -15.83339    4.39476
       O    15.70493  -15.52097    3.50481
      H1    15.97880  -14.53469    3.52530
       H    17.17427  -17.16632    1.27311
       O    16.23258  -16.79133    1.31801
      H1    16.13035  -16.37570    2.16167

