18
frame 6 | Written by MDAnalysis XYZWriter (release 2.4.3)
       H     0.15882   -7.66205    2.13399
       O     0.32264   -8.08557    1.26989
      H1     0.78397   -8.88656    1.62178
       H     1.24529   -6.16859    3.76726
       O     0.50456   -6.76578    3.76797
      H1     0.21987   -6.93919    4.68778
       H    -2.41002   -6.69453   -1.32057
       O    -2.07205   -7.52164   -1.02321
      H1    -1.19595   -7.29191   -0.69342
       H     0.31182  -10.35689   -1.44632
       O     0.29790  -10.42427   -0.48471
      H1    -0.00627   -9.58455   -0.20221
       H     2.85015   -8.16244    0.24003
       O     2.89774   -7.22252    0.46058
      H1     2.00411   -6.96996    0.67205
       H    -2.24500   -4.15444    2.97458
       O    -1.73344   -4.89713    2.60692
      H1    -1.09496   -5.21731    3.27962

