18
frame 7 | Written by MDAnalysis XYZWriter (release 2.4.3)
       H   -15.47466  -18.72179    0.15611
       O   -15.13902  -17.77466    0.25682
      H1   -14.85895  -17.88704    1.12453
       H   -15.35907  -17.97973    3.22245
       O   -14.38706  -17.94438    3.13550
      H1   -14.05080  -18.76761    3.53402
       H   -11.82853  -19.25892    7.25497
       O   -12.08636  -18.60509    6.59198
      H1   -12.60446  -19.12020    5.94181
       H   -12.11901  -16.57590    1.91629
       O   -11.59804  -16.95612    1.22996
      H1   -11.27906  -16.24483    0.60634
       H   -17.35797  -18.27269    5.04399
       O   -16.97394  -17.45071    4.70549
      H1   -16.37560  -17.06200    5.37856
       H   -13.58248  -16.24356    3.12142
       O   -13.07488  -15.43752    3.33561
      H1   -13.53298  -15.03193    4.08919

