18
frame 6 | Written by MDAnalysis XYZWriter (release 2.4.3)
       H    15.11862    6.90896   18.76065
       O    15.92246    7.13043   18.35507
      H1    15.52125    7.65282   17.65937
       H    14.03012   12.22184   19.65170
       O    14.26155   12.36145   18.70421
      H1    15.17423   12.01472   18.71703
       H    17.46465   12.28039   18.25528
       O    16.83809   11.73293   17.72776
      H1    16.50994   12.08733   16.89330
       H    19.23388   13.57579   17.81903
       O    19.13764   13.08522   18.64639
      H1    19.22207   13.76585   19.37369
       H    17.99674    6.86328   16.36442
       O    18.78830    7.38776   16.33112
      H1    18.94660    7.55643   17.29062
       H    17.41908   10.13447   18.21738
       O    17.74063    9.23977   18.50761
      H1    16.94567    8.79410   18.89650

