18
frame 6 | Written by MDAnalysis XYZWriter (release 2.4.3)
       H    -6.56304    4.92476    1.07884
       O    -6.82433    4.47631    0.29087
      H1    -7.61578    3.92379    0.42123
       H    -4.70877    5.64229   -3.43111
       O    -5.01547    5.72365   -2.50256
      H1    -5.70469    5.12200   -2.39755
       H    -7.89461    2.91209    3.89312
       O    -7.56571    3.10490    2.98231
      H1    -6.88553    3.72582    3.17687
       H    -7.58271    4.75010   -1.62700
       O    -8.27102    4.61382   -2.29297
      H1    -7.86917    4.07124   -3.03573
       H    -5.45180    3.51547    0.15631
       O    -4.68111    2.94630    0.22765
      H1    -4.01582    3.52664    0.62889
       H    -4.85177    5.52316    2.27674
       O    -5.72443    5.41559    2.68515
      H1    -5.93611    6.39808    2.87380

