18
frame 6 | Written by MDAnalysis XYZWriter (release 2.4.3)
       H    14.46958    3.03447   -6.12564
       O    14.59241    3.12532   -5.14385
      H1    14.05222    3.92620   -4.98439
       H    16.65028    7.01983   -5.49399
       O    16.81152    6.77169   -4.56553
      H1    16.67998    5.80035   -4.51360
       H    16.72446    3.28810   -0.57999
       O    15.94558    2.99427   -1.09341
      H1    16.11440    3.25995   -2.00507
       H    17.03563    5.31656   -2.34166
       O    17.52913    5.96752   -1.85167
      H1    17.55389    6.80018   -2.39766
       H    15.98761    3.80930   -4.29642
       O    16.58936    4.07160   -3.59370
      H1    17.39754    3.99045   -4.04970
       H    15.99108    4.14276   -6.84158
       O    16.81914    4.64810   -7.04760
      H1    17.29687    4.24556   -7.77036

