18
frame 6 | Written by MDAnalysis XYZWriter (release 2.4.3)
       H   -16.86445    5.12475    7.68506
       O   -16.23913    4.51695    7.24356
      H1   -15.45910    4.75276    7.79689
       H   -16.71895    2.89265    7.48630
       O   -17.26782    2.20253    7.88932
      H1   -17.97265    2.69522    8.37579
       H   -13.97148    3.09559   10.30434
       O   -13.59045    3.33006    9.41115
      H1   -13.11061    2.56824    9.09444
       H   -14.97186    4.11255    4.28081
       O   -14.61823    4.03019    5.17779
      H1   -15.36311    4.36872    5.70756
       H   -14.21975    5.68174    5.76226
       O   -14.12593    6.62334    5.97907
      H1   -13.99331    6.72134    6.91994
       H   -13.77360    6.32967    9.56812
       O   -13.66415    5.87734    8.76860
      H1   -13.80073    4.92589    8.96114

