18
frame 7 | Written by MDAnalysis XYZWriter (release 2.4.3)
       H    -0.12700    2.56763   -5.32107
       O     0.41569    1.77578   -5.54054
      H1    -0.19203    1.32448   -6.18918
       H     1.41691    1.19224   -0.67672
       O     1.82279    1.86694   -0.08301
      H1     2.73047    1.51398   -0.09495
       H     2.23744    3.83675   -3.30709
       O     2.20613    2.93639   -2.97588
      H1     2.54778    3.00227   -2.07947
       H    -2.76123   -0.75666   -2.59999
       O    -1.78293   -0.72727   -2.48240
      H1    -1.51260    0.21236   -2.56816
       H    -0.78396    2.51009   -1.31941
       O    -0.60694    1.86664   -2.00424
      H1     0.18764    2.19321   -2.51642
       H    -2.03972    3.50286   -4.01583
       O    -1.47231    4.24149   -4.34585
      H1    -1.52436    5.00726   -3.74003

