18
frame 7 | Written by MDAnalysis XYZWriter (release 2.4.3)
       H     1.95929  -14.29741    1.21993
       O     2.14469  -14.33470    2.12181
      H1     2.99225  -14.81114    2.11918
       H     1.76588  -15.65284   -0.43491
       O     1.54521  -14.67132   -0.40410
      H1     2.24100  -14.13118   -0.81214
       H     4.12159  -15.80544   -0.69577
       O     4.68410  -15.34344   -1.33313
      H1     5.15438  -14.63580   -0.82979
       H    -1.63118  -13.51947   -0.92748
       O    -1.13185  -14.27602   -1.18862
      H1    -0.24498  -14.22880   -0.76069
       H     1.58415  -17.50356    0.80021
       O     2.36275  -17.29308    0.14520
      H1     2.71327  -18.17792   -0.05231
       H     1.77547  -11.85172   -1.29156
       O     2.68639  -12.18024   -1.26303
      H1     2.79874  -12.72178   -2.02613

