18
frame 7 | Written by MDAnalysis XYZWriter (release 2.4.3)
       H     3.23264   10.03857  -16.82368
       O     3.67653    9.83026  -17.68097
      H1     4.46458   10.38893  -17.83622
       H     3.95708   14.21517  -18.82955
       O     4.07348   15.00331  -19.38157
      H1     3.54154   15.71987  -18.88920
       H     0.48900   11.77213  -19.30473
       O     0.78307   12.51767  -18.75790
      H1     0.08847   12.76438  -18.19959
       H     3.58436   12.55202  -16.35766
       O     3.79469   12.46223  -15.37233
      H1     4.42524   11.74810  -15.32357
       H     5.99862   12.48043  -18.77177
       O     5.53960   11.63217  -18.85832
      H1     6.12488   11.07842  -19.32933
       H     2.28033   12.83990  -18.23253
       O     3.19372   12.90907  -17.89307
      H1     3.74071   12.28318  -18.32903

