18
frame 8 | Written by MDAnalysis XYZWriter (release 2.4.3)
       H    -0.42735  -16.43465    2.71999
       O     0.52283  -16.72059    2.83900
      H1     1.00676  -16.00390    2.39873
       H     1.56443  -13.94155    1.64054
       O     1.89156  -14.50451    2.32206
      H1     2.85205  -14.37105    2.25792
       H     2.66376  -16.65859    0.72994
       O     3.57622  -16.50547    0.55047
      H1     3.65142  -16.32306   -0.38060
       H    -2.22583  -16.43553    1.94232
       O    -2.14789  -16.54484    2.94631
      H1    -2.45206  -15.67848    3.30829
       H     0.47853  -17.85573    1.17738
       O     0.87922  -18.18552    0.33735
      H1     1.70205  -18.70902    0.62734
       H     1.04904  -17.13484    5.69093
       O     1.05166  -17.94044    5.15300
      H1     0.90366  -17.64886    4.26357

