18
frame 8 | Written by MDAnalysis XYZWriter (release 2.4.3)
       H    12.90946   -9.51692  -18.74550
       O    13.73752   -9.34450  -18.36626
      H1    13.90319   -8.42155  -18.58321
       H    14.71456   -8.63535  -15.31183
       O    13.87612   -9.11502  -15.40352
      H1    13.59034   -9.17541  -16.30466
       H    12.49554   -7.10067  -13.19294
       O    12.05779   -7.20046  -14.09949
      H1    12.48339   -8.00037  -14.51313
       H    15.12647  -10.65092  -15.89226
       O    15.60684  -11.41407  -16.24572
      H1    15.28938  -11.40350  -17.19280
       H    16.22399   -6.94425  -15.92370
       O    15.84523   -7.10715  -15.05728
      H1    15.18252   -6.41537  -14.81863
       H    11.05801   -9.96418  -16.90803
       O    11.37118  -10.40001  -17.70076
      H1    11.28228  -11.42100  -17.51114

