18
frame 7 | Written by MDAnalysis XYZWriter (release 2.4.3)
       H    18.13394   -9.29849   -9.12990
       O    18.05926  -10.09339   -8.58151
      H1    17.88653   -9.80389   -7.69997
       H    16.80518  -11.54736   -4.32543
       O    16.56686  -11.05125   -3.51858
      H1    16.10409  -10.16216   -3.70143
       H    14.22080  -11.77002   -7.34628
       O    14.57833  -11.07743   -6.72567
      H1    15.53319  -11.11276   -6.90226
       H    14.83081   -8.05402   -6.12023
       O    15.59802   -8.00795   -6.73025
      H1    15.86095   -7.10423   -7.00406
       H    18.86402  -13.17309   -5.29755
       O    17.95049  -13.11356   -4.98761
      H1    17.79610  -13.63749   -4.15918
       H    16.80825   -8.99333   -6.09447
       O    17.44977   -9.70718   -5.88885
      H1    18.08955   -9.31192   -5.26622

