18
frame 7 | Written by MDAnalysis XYZWriter (release 2.4.3)
       H    13.95037   10.14452   12.36478
       O    13.10101   10.42793   12.81598
      H1    12.35900   10.09360   12.25494
       H    11.13647   13.91804   15.12461
       O    11.04535   13.21441   15.79284
      H1    11.79241   12.61285   15.60833
       H    14.07379   11.83132   15.23622
       O    13.17506   11.55286   15.51541
      H1    12.74224   11.24368   14.69771
       H    15.38439   15.16601   13.32697
       O    14.86719   14.91922   14.13119
      H1    14.39400   14.12838   13.75971
       H    17.27065   12.32665   17.98997
       O    16.46355   11.82558   17.82983
      H1    16.31911   11.99880   16.87490
       H    16.60522   11.51225   14.91489
       O    15.87023   11.99052   15.27158
      H1    16.01089   12.91205   15.03679

