18
frame 7 | Written by MDAnalysis XYZWriter (release 2.4.3)
       H   -15.39930   -5.04789   -9.48615
       O   -16.25921   -4.71134   -9.20082
      H1   -16.18856   -3.72375   -9.15661
       H   -13.03605   -8.44038   -9.83283
       O   -13.08287   -7.47068   -9.79677
      H1   -12.26334   -7.23167  -10.27170
       H   -14.56113   -7.10511   -7.96175
       O   -15.16620   -7.46384   -7.30155
      H1   -15.96675   -6.86887   -7.26996
       H   -14.83743   -9.30150   -4.47284
       O   -14.17258   -8.65766   -4.76357
      H1   -14.44758   -8.33588   -5.59943
       H   -15.07629   -7.28477  -10.70764
       O   -15.79037   -6.97257  -11.25276
      H1   -15.76286   -7.58283  -12.06493
       H   -17.36474   -9.92056   -7.61296
       O   -16.46414   -9.81757   -7.25721
      H1   -16.14516   -8.93623   -7.51257

