18
frame 8 | Written by MDAnalysis XYZWriter (release 2.4.3)
       H    16.40770  -14.36529   17.38895
       O    16.48058  -15.31130   17.52250
      H1    17.31969  -15.63840   17.21781
       H    18.07232  -15.15807   15.54498
       O    18.63865  -15.65246   16.10708
      H1    18.87302  -16.49302   15.64102
       H    16.24209  -16.72626   13.57504
       O    16.60196  -16.76889   12.69334
      H1    17.58072  -16.78422   12.80610
       H    19.80383  -14.66620   12.15369
       O    19.66162  -14.71656   13.09498
      H1    18.82235  -14.23471   13.24356
       H    16.89528  -13.38590   15.19504
       O    17.22065  -13.73347   14.32787
      H1    16.55295  -13.37628   13.70543
       H    15.66622  -15.95050   15.85612
       O    15.29866  -16.28733   15.05183
      H1    15.08158  -17.20494   15.20909

