18
frame 7 | Written by MDAnalysis XYZWriter (release 2.4.3)
       H    -7.73019   -9.68431    2.95431
       O    -8.23913   -9.88989    2.15674
      H1    -7.68371   -9.34529    1.48704
       H   -10.49663  -14.48147    4.29080
       O   -10.34218  -13.56769    4.09371
      H1    -9.95094  -13.52059    3.21660
       H    -9.77936  -13.45659   -1.14790
       O    -9.43001  -12.55363   -1.06974
      H1   -10.14525  -11.93939   -1.17616
       H    -7.91116  -11.67663   -2.02855
       O    -7.04563  -11.52248   -2.49916
      H1    -6.59265  -12.30218   -2.16626
       H    -7.47438  -15.63538    0.27885
       O    -6.89227  -15.17122    0.91910
      H1    -7.33924  -14.42770    1.36700
       H    -8.38668  -12.12400    2.30129
       O    -8.53430  -12.91458    1.74410
      H1    -8.80613  -12.58167    0.87862

