18
frame 7 | Written by MDAnalysis XYZWriter (release 2.4.3)
       H    -1.92407   17.45934  -17.39822
       O    -1.05256   17.42557  -16.98209
      H1    -0.80032   16.48525  -17.00983
       H    -4.29715   17.20025  -17.97729
       O    -4.14042   16.29248  -17.60221
      H1    -4.31273   15.62529  -18.32998
       H    -1.34423   19.18771  -14.32751
       O    -1.93547   19.28556  -15.07594
      H1    -1.64127   18.68459  -15.77658
       H    -7.25774   18.71429  -19.51664
       O    -7.33846   19.47144  -18.92692
      H1    -7.44190   20.28165  -19.50492
       H    -5.84375   16.95057  -16.93080
       O    -6.66641   17.29411  -16.56314
      H1    -7.17043   17.55017  -17.31661
       H    -3.41168   19.42176  -18.76165
       O    -3.60515   18.50645  -19.11875
      H1    -2.86405   18.20048  -19.67305

