18
frame 7 | Written by MDAnalysis XYZWriter (release 2.4.3)
       H    20.10671  -18.25721   -3.60162
       O    19.77781  -17.59594   -4.22936
      H1    18.76435  -17.60687   -4.18974
       H    15.11435  -15.89098   -5.82858
       O    15.45254  -16.76735   -5.56625
      H1    15.29405  -17.24788   -6.38711
       H    16.83140  -15.36382   -3.25679
       O    16.92653  -14.49174   -2.94583
      H1    16.19061  -14.04486   -3.37757
       H    18.86402  -13.17309   -5.29755
       O    17.95049  -13.11356   -4.98761
      H1    17.79610  -13.63749   -4.15918
       H    20.08481  -17.13213   -0.01935
       O    19.18422  -17.37084    0.12168
      H1    18.98537  -18.17006   -0.37956
       H    16.47942  -16.94122   -4.38928
       O    17.12401  -17.12654   -3.64296
      H1    16.58986  -17.28390   -2.84320

