18
frame 7 | Written by MDAnalysis XYZWriter (release 2.4.3)
       H     5.21026   -2.28738   -2.43355
       O     4.66374   -2.76986   -3.01929
      H1     4.87942   -3.73932   -2.96648
       H     6.68877    0.09151   -2.19642
       O     6.07414   -0.58441   -1.75671
      H1     5.55271   -0.09725   -1.12728
       H     5.97180    0.82183   -4.94762
       O     5.14168    0.76732   -4.47228
      H1     5.35945    0.89214   -3.56010
       H     7.45487    2.26565   -3.24225
       O     7.30254    1.85659   -2.40164
      H1     7.02543    2.50606   -1.77622
       H     3.85819    2.18006   -5.44216
       O     3.24582    2.48374   -6.12074
      H1     2.37667    2.23330   -5.73307
       H     4.82778   -3.26621   -5.72646
       O     5.13497   -2.32837   -5.70396
      H1     4.90677   -1.99732   -4.78560

