18
frame 8 | Written by MDAnalysis XYZWriter (release 2.4.3)
       H   -19.64316   15.45095  -17.48815
       O   -19.26998   14.70212  -18.03480
      H1   -19.25041   13.85811  -17.51666
       H   -16.79621   15.15004  -13.84631
       O   -17.40211   14.89214  -14.55506
      H1   -17.81459   15.73959  -14.71640
       H   -16.18135   18.78890  -18.19847
       O   -15.44704   18.24378  -17.95006
      H1   -15.89890   17.40454  -17.68942
       H   -16.09678   19.74542  -16.33857
       O   -16.18478   19.53016  -15.39175
      H1   -15.38656   18.98904  -15.23034
       H   -18.44681   17.67506  -16.28800
       O   -17.97288   17.61657  -15.47424
      H1   -17.25792   18.26848  -15.49288
       H   -19.07671   18.93272  -14.81489
       O   -19.78933   19.64490  -14.78625
      H1   -19.74953   20.17960  -14.00668

