18
frame 7 | Written by MDAnalysis XYZWriter (release 2.4.3)
       H     8.34323   18.04023   13.31912
       O     8.70033   17.22456   12.97137
      H1     8.32352   16.60934   13.61077
       H     6.99368   18.39840   15.51826
       O     6.65061   18.95725   14.78859
      H1     5.70279   18.96759   14.95543
       H     6.76441   16.74554   12.51926
       O     5.87480   16.42832   12.45991
      H1     5.83092   16.09267   11.56532
       H     6.57469   15.01302   14.03015
       O     7.52592   15.19342   14.37242
      H1     7.77440   14.30254   14.64399
       H     9.84394   17.02876   11.57668
       O    10.70657   16.88998   11.08773
      H1    11.44046   16.85592   11.69795
       H    10.38476   15.93205   13.64952
       O    11.23357   15.64931   14.06834
      H1    11.51416   16.44796   14.61020

