18
frame 7 | Written by MDAnalysis XYZWriter (release 2.4.3)
       H    14.27728   19.59472   19.23905
       O    14.87592   19.03183   19.76043
      H1    15.64365   19.60241   19.79761
       H    12.79166   14.05068   17.05980
       O    13.31418   14.49614   17.76187
      H1    13.72544   13.79888   18.27744
       H    14.35894   17.18277   19.78586
       O    14.05370   16.24099   19.91088
      H1    13.51464   15.88320   19.24218
       H    15.78867   14.03432   17.83008
       O    16.11271   14.89268   18.26462
      H1    15.31946   15.42559   18.44360
       H    12.58034   18.70021   17.99508
       O    12.24065   17.95512   18.43709
      H1    11.28714   17.87440   18.19154
       H    14.40465   16.21422   16.03912
       O    14.40200   17.09770   16.47730
      H1    13.83608   17.06277   17.26664

