18
frame 7 | Written by MDAnalysis XYZWriter (release 2.4.3)
       H   -14.16480  -13.59362  -17.02864
       O   -13.96654  -13.14894  -17.88487
      H1   -14.63557  -12.46797  -17.84254
       H   -10.67031  -16.08237  -16.90929
       O   -11.41124  -15.79417  -16.31837
      H1   -11.14512  -14.95099  -15.89752
       H   -14.38330  -11.09658  -15.77908
       O   -15.16173  -11.24669  -15.19690
      H1   -15.91243  -10.83089  -15.57507
       H   -14.96571  -12.95746  -15.00948
       O   -14.83341  -13.90644  -15.14275
      H1   -14.04770  -14.04503  -14.60273
       H   -17.63980  -11.62865  -18.10275
       O   -17.07111  -11.99576  -17.40386
      H1   -17.23520  -11.49570  -16.60956
       H   -15.07988  -14.59052  -18.71102
       O   -15.85308  -15.15128  -19.02625
      H1   -16.34319  -15.23530  -18.23679

