18
frame 7 | Written by MDAnalysis XYZWriter (release 2.4.3)
       H    12.54285   -1.62950   -9.16042
       O    11.74124   -1.62987   -8.54387
      H1    10.95200   -1.37703   -9.04714
       H    11.22860   -4.50157   -9.22630
       O    10.67871   -4.51585  -10.01970
      H1    11.11897   -3.95864  -10.60157
       H    14.16684   -2.38136  -10.94310
       O    13.88065   -2.62215  -10.04112
      H1    13.86980   -3.52877   -9.97109
       H    13.58618   -6.06596   -9.05630
       O    14.07139   -5.28047   -9.00796
      H1    13.48005   -4.74683   -8.38083
       H    11.52504   -4.64258   -7.09017
       O    11.97450   -4.11755   -7.80834
      H1    11.84229   -3.15737   -7.81394
       H    11.00092   -5.49678   -5.00769
       O    11.33796   -5.83100   -5.81980
      H1    10.68728   -6.53231   -6.17384

