18
frame 7 | Written by MDAnalysis XYZWriter (release 2.4.3)
       H    17.86073    3.91387   -6.56214
       O    18.50202    4.08612   -5.84118
      H1    18.82931    3.25552   -5.52972
       H    15.07761   -1.73206   -2.43474
       O    15.36868   -0.88030   -2.69254
      H1    15.10351   -0.23440   -2.00194
       H    18.18469   -1.73205   -3.66209
       O    17.58501   -2.45586   -3.74615
      H1    16.75348   -2.07830   -3.53326
       H    15.55916    3.86943   -4.46062
       O    16.46050    3.97337   -4.02426
      H1    17.03823    3.73267   -4.77434
       H    19.62823   -0.25846   -4.63448
       O    18.99480    0.25593   -4.14481
      H1    18.20301    0.25970   -4.70282
       H    15.98540   -0.09959   -5.73020
       O    16.50494    0.26530   -4.95825
      H1    15.98372    0.05962   -4.14881

