18
frame 9 | Written by MDAnalysis XYZWriter (release 2.4.3)
       H    -1.56019    8.89037    7.80490
       O    -1.31905    9.89316    7.71861
      H1    -1.99309   10.28473    8.25845
       H    -2.21068    7.30500   10.56790
       O    -2.04016    6.38586   10.84080
      H1    -2.65719    6.12307   11.53706
       H    -5.04265    6.39073    9.17515
       O    -4.82693    6.91487    9.96328
      H1    -5.18648    7.74720    9.60862
       H    -3.79405    8.60212   10.14114
       O    -3.05275    9.18845   10.09118
      H1    -3.10627    9.59544   10.96205
       H    -5.54980    8.47761    7.53178
       O    -6.12727    8.64499    8.32576
      H1    -6.90324    8.09788    8.10082
       H    -4.62021    7.45186   13.84105
       O    -4.08560    7.20690   13.10836
      H1    -3.57432    8.01261   12.93660

