18
frame 8 | Written by MDAnalysis XYZWriter (release 2.4.3)
       H    12.22684  -15.38515   11.74960
       O    11.97075  -15.16718   10.85744
      H1    11.20486  -15.73825   10.62147
       H    13.61962  -18.72712   10.73505
       O    13.72153  -19.22101   11.57219
      H1    13.51849  -20.12511   11.42648
       H    11.97393  -14.39266    8.89834
       O    11.82200  -14.12139    8.01095
      H1    12.69787  -14.03592    7.61201
       H    12.95500  -16.61192   10.06374
       O    13.58850  -17.17999    9.62631
      H1    13.15906  -17.87970    9.04953
       H    13.10095  -14.01020   10.56381
       O    13.78529  -13.29581   10.41125
      H1    14.00451  -12.93544   11.25489
       H    16.53179  -15.25902    9.41782
       O    15.73352  -15.46311    8.99801
      H1    15.21574  -16.10234    9.46749

