18
frame 9 | Written by MDAnalysis XYZWriter (release 2.4.3)
       H   -13.11951  -12.45886    8.49309
       O   -13.47419  -12.96898    7.70384
      H1   -14.02738  -12.25675    7.24021
       H   -12.79541   -7.65600    9.22935
       O   -13.59281   -8.21073    9.45277
      H1   -14.39921   -7.70549    9.25546
       H   -11.78077   -9.65307   12.24500
       O   -11.63209  -10.64713   12.16195
      H1   -12.34587  -10.75061   11.50437
       H   -15.06722  -13.02930    8.95098
       O   -15.96753  -13.35312    8.88869
      H1   -16.07020  -13.99921    9.57771
       H   -15.10616  -12.05932   12.69603
       O   -15.12472  -11.13733   12.40077
      H1   -16.08995  -11.02713   12.22612
       H   -14.27542  -11.17214   10.84880
       O   -13.70980  -10.94920   10.07546
      H1   -13.85062  -10.02134    9.79760

