18
frame 9 | Written by MDAnalysis XYZWriter (release 2.4.3)
       H    11.84120    5.62907   -7.78748
       O    11.30709    5.18461   -7.09569
      H1    11.82470    5.40679   -6.28931
       H     7.27361    3.05988   -6.66045
       O     7.16849    3.70280   -7.33529
      H1     7.72904    4.51283   -7.23170
       H     8.26408    6.50946   -6.52409
       O     8.66957    5.91571   -7.15977
      H1     9.62576    5.77493   -6.98372
       H     7.70947    6.83371   -8.49380
       O     7.77103    7.45841   -9.26019
      H1     6.89207    7.87437   -9.25816
       H    10.92296    2.24828   -5.43453
       O    10.43095    2.77281   -6.10790
      H1    11.04470    3.40383   -6.38443
       H     8.91990    3.59071   -4.99542
       O     8.57483    3.55691   -4.10551
      H1     8.22523    4.37133   -3.81622

