18
frame 8 | Written by MDAnalysis XYZWriter (release 2.4.3)
       H     9.47050   16.99727    2.33080
       O     9.40074   17.62479    3.06303
      H1     9.46250   17.06408    3.81812
       H     8.57324   14.80759    0.01792
       O     8.12312   14.04839   -0.39606
      H1     8.62075   13.25938   -0.16962
       H    13.13909   15.84195    2.22504
       O    12.52897   15.95297    1.48126
      H1    12.51641   16.92111    1.30222
       H    12.38328   15.17556   -0.11598
       O    12.53737   14.59993   -0.89436
      H1    11.69204   14.69678   -1.43894
       H    12.07746   12.25021    0.93656
       O    11.37355   12.38857    0.29208
      H1    11.75024   13.14989   -0.20173
       H    10.80397   15.68630    1.17224
       O     9.89418   15.43020    1.12612
      H1     9.93184   14.49657    1.43891

