18
frame 9 | Written by MDAnalysis XYZWriter (release 2.4.3)
       H     7.89801    9.53615  -12.57777
       O     8.75867    9.78249  -12.20282
      H1     8.59793   10.50665  -11.62662
       H     4.46854   10.75864  -10.28454
       O     5.19138   10.24133  -10.57173
      H1     5.99989   10.77528  -10.59012
       H     7.85336   11.97034   -9.85005
       O     7.50055   11.66814  -10.74410
      H1     7.22198   12.41720  -11.25632
       H     5.03670    9.13811   -9.01345
       O     5.51569    8.70524   -8.31029
      H1     4.89042    7.94872   -8.10963
       H     5.43785   12.30156  -13.79286
       O     5.73244   11.47386  -14.25862
      H1     5.78079   10.67840  -13.69370
       H     5.37495    8.58175  -13.33388
       O     6.11095    8.99936  -12.89948
      H1     5.75376    9.36853  -12.05348

