18
frame 8 | Written by MDAnalysis XYZWriter (release 2.4.3)
       H    16.40770  -14.36529   17.38895
       O    16.48058  -15.31130   17.52250
      H1    17.31969  -15.63840   17.21781
       H    10.82360  -12.84572   19.57680
       O    10.64762  -12.84018   18.61872
      H1    11.50316  -12.78865   18.15930
       H    13.30280  -13.65778   17.97170
       O    13.58020  -12.75707   17.77545
      H1    13.38411  -12.50508   16.86544
       H    14.04676  -15.34277   19.56597
       O    13.78662  -15.47453   18.65337
      H1    14.63102  -15.34443   18.22338
       H    15.66622  -15.95050   15.85612
       O    15.29866  -16.28733   15.05183
      H1    15.08158  -17.20494   15.20909
       H    13.97666  -18.64544   17.39687
       O    13.39015  -18.45272   18.18992
      H1    12.90073  -17.66753   17.87187

