18
frame 8 | Written by MDAnalysis XYZWriter (release 2.4.3)
       H    -0.44565    8.03912   -5.31715
       O    -1.02747    7.80256   -6.06959
      H1    -1.35683    8.72102   -6.24644
       H     2.12623   10.30642   -4.91925
       O     2.03601   10.88317   -5.67939
      H1     1.09802   10.81686   -5.90832
       H    -1.30551   11.22449   -7.01051
       O    -0.49304   10.71953   -6.80661
      H1    -0.06193   10.62454   -7.69127
       H     1.56798   13.95577   -4.40897
       O     1.53543   13.58095   -5.31625
      H1     1.38962   12.65031   -5.22833
       H     2.05304   10.27852   -7.66069
       O     1.69312   10.55252   -8.52500
      H1     2.13552   11.42414   -8.67665
       H     1.12324    8.79259   -3.52520
       O     0.21380    8.56118   -3.65489
      H1    -0.24976    9.43774   -3.52848

