18
frame 8 | Written by MDAnalysis XYZWriter (release 2.4.3)
       H    -5.03519   18.04090    4.55577
       O    -5.84475   17.51638    4.64796
      H1    -5.84001   17.00304    3.84316
       H    -2.69366   19.83321    3.31586
       O    -2.52707   18.96641    2.96414
      H1    -3.33769   18.72914    2.49067
       H    -8.39599   17.46988    4.94433
       O    -8.46160   17.61049    5.90235
      H1    -7.65534   17.99100    6.02788
       H    -5.55065   19.51215    6.70674
       O    -6.41865   19.23029    7.10694
      H1    -6.94227   20.01525    7.20221
       H    -7.22547   15.93309    1.81220
       O    -6.36353   16.13375    2.24163
      H1    -5.91185   16.85378    1.77367
       H    -5.59449   16.43386    5.99258
       O    -5.17087   15.83702    6.65978
      H1    -5.87542   15.16470    6.91654

