18
frame 8 | Written by MDAnalysis XYZWriter (release 2.4.3)
       H   -10.12375   19.00728   18.13911
       O   -10.55131   18.11460   18.09982
      H1    -9.96123   17.59524   17.52456
       H   -11.09353   15.60207   19.22128
       O   -11.80495   15.16375   18.80254
      H1   -12.60641   15.68429   18.89218
       H    -8.23093   16.72031   19.31389
       O    -7.63728   17.46166   19.12721
      H1    -7.01960   17.04439   18.50555
       H   -12.14783   17.84573   16.56354
       O   -12.90119   17.29544   16.48539
      H1   -13.18086   17.22992   17.42013
       H   -10.37473   15.81225   15.12422
       O   -11.16285   15.31258   15.28001
      H1   -11.83966   15.98047   15.55187
       H    -7.95795   17.52189   16.31802
       O    -8.87095   17.29150   15.94429
      H1    -8.91490   17.71947   15.05734

