18
frame 9 | Written by MDAnalysis XYZWriter (release 2.4.3)
       H    16.59151  -14.14996   17.29495
       O    16.58718  -14.86818   17.94835
      H1    17.47182  -15.29445   17.83479
       H    19.37444  -15.14488   14.90609
       O    19.26345  -15.87969   15.50271
      H1    19.83701  -16.61350   15.16348
       H    15.25987  -12.85873   15.83251
       O    16.18514  -13.13728   16.01263
      H1    16.70816  -12.36655   15.85057
       H    19.09343  -12.76348   14.57120
       O    18.98095  -13.42152   13.87951
      H1    18.23089  -14.01636   13.94762
       H    14.79038  -15.50621   14.96699
       O    13.97885  -14.99887   14.55416
      H1    14.41038  -14.46131   13.94767
       H    15.78631  -16.07620   16.53493
       O    15.95893  -16.51009   15.67401
      H1    15.95638  -17.39481   15.98305

