18
frame 9 | Written by MDAnalysis XYZWriter (release 2.4.3)
       H    15.32367    8.65157   17.61530
       O    15.64485    7.77081   17.54960
      H1    15.70682    7.55160   16.59675
       H    16.77691    4.96916   19.45533
       O    17.15725    5.85190   19.13573
      H1    16.34955    6.43246   18.88296
       H    17.80877    7.42832   16.06556
       O    18.67734    7.76799   16.43893
      H1    18.50242    8.21634   17.29878
       H    17.04213    5.52111   14.86904
       O    16.56579    6.31820   15.14281
      H1    16.61456    6.88077   14.32194
       H    16.34749    8.63411   12.71916
       O    17.14918    8.18851   13.11838
      H1    17.69108    8.94196   13.28020
       H    17.30848    9.18235   18.76990
       O    18.10365    8.66673   18.99720
      H1    17.81810    7.74102   18.79734

