18
frame 9 | Written by MDAnalysis XYZWriter (release 2.4.3)
       H     1.11953  -13.62263    8.03711
       O     1.59450  -13.10869    8.70985
      H1     2.04725  -12.25178    8.30631
       H    -0.93126  -13.27106    4.90686
       O    -0.37650  -12.63126    5.34142
      H1     0.55213  -12.72278    5.07969
       H    -2.05973  -16.29428    8.97292
       O    -2.33261  -15.39562    8.65689
      H1    -2.46840  -15.44534    7.71345
       H    -0.65695  -10.71117    7.99015
       O    -1.24747  -11.33065    7.59383
      H1    -0.71986  -11.70327    6.88037
       H    -0.60039  -14.78247    7.93006
       O     0.02076  -14.78180    7.21814
      H1    -0.17634  -13.95436    6.76696
       H    -0.04545  -16.46215    6.46479
       O    -0.04754  -17.27964    5.91710
      H1     0.08114  -17.04984    4.94329

