18
frame 8 | Written by MDAnalysis XYZWriter (release 2.4.3)
       H     0.44987   16.82309  -13.28461
       O     0.03604   15.97234  -12.99515
      H1     0.08209   16.07172  -12.04321
       H     1.07029   12.58926  -12.80997
       O     0.87684   12.99711  -11.96847
      H1     0.12186   12.42126  -11.63295
       H     1.78335   15.23220  -13.46628
       O     2.74524   15.28314  -13.36627
      H1     3.11358   14.69502  -14.06565
       H    -1.65187   12.59207  -13.98712
       O    -1.69813   13.39907  -13.45007
      H1    -0.72948   13.55187  -13.23684
       H     1.98673   17.98511  -14.49108
       O     1.24869   18.18185  -13.96134
      H1     1.52353   18.26898  -13.07243
       H    -2.75583   14.68561  -12.57889
       O    -3.23831   15.46120  -12.17280
      H1    -2.66089   15.80735  -11.46896

