18
frame 9 | Written by MDAnalysis XYZWriter (release 2.4.3)
       H    17.23565   15.69308    2.78699
       O    17.47033   15.72255    1.84902
      H1    17.53022   14.76609    1.70598
       H    15.05966   15.52390    3.74749
       O    14.17144   15.20215    3.98203
      H1    13.79911   15.83148    4.63007
       H    12.79901   17.42431    6.15521
       O    13.66530   17.25547    5.78896
      H1    13.64127   17.71219    4.95575
       H    15.50477   18.77355    5.69945
       O    16.37387   18.52277    6.01168
      H1    16.81740   19.37216    5.82825
       H    18.61567   16.50664    8.60013
       O    19.09165   17.13979    8.09512
      H1    18.30682   17.72014    7.81227
       H    17.41474   15.74672    4.96507
       O    16.68603   16.27885    4.55773
      H1    16.66996   17.13640    5.01884

