18
frame 0 | Written by MDAnalysis XYZWriter (release 2.4.3)
       H    -8.05963    8.89834  -17.19049
       O    -9.02948    8.76231  -17.35783
      H1    -9.43062    8.69198  -16.52775
       H    -9.39707   10.57766  -16.16492
       O    -9.66432   11.21620  -15.49185
      H1   -10.29774   10.76566  -14.96445
       H   -11.38270    7.39279  -12.92535
       O   -11.41922    6.83576  -12.17136
      H1   -10.58967    6.93561  -11.65639
       H    -6.33633    6.87759  -14.24818
       O    -7.11535    7.45507  -14.20458
      H1    -7.13120    7.51219  -13.27313
       H    -9.52729    8.08879  -14.42331
       O   -10.38898    7.99777  -14.83577
      H1   -10.24702    7.09488  -15.22338
       H    -8.32425    6.01913  -12.47822
       O    -8.60258    6.82724  -11.87357
      H1    -8.33419    6.49760  -11.02243

