18
frame 9 | Written by MDAnalysis XYZWriter (release 2.4.3)
       H    15.16119    6.41807   -6.74303
       O    14.32973    6.81282   -7.10484
      H1    14.06081    7.38087   -6.37956
       H    14.51196    7.65354   -8.50260
       O    14.39165    8.11027   -9.35740
      H1    14.09126    9.04091   -9.20108
       H    17.48290    6.64384   -5.92944
       O    17.26929    6.53171   -4.99994
      H1    17.74376    5.77516   -4.60709
       H    16.65370    6.00100   -8.47369
       O    17.05471    6.52954   -7.79362
      H1    17.75846    6.99790   -8.17049
       H    14.86197    5.02904   -9.89688
       O    15.71972    5.42940   -9.94588
      H1    15.82647    5.92182  -10.75394
       H    18.88814    8.86459   -8.88197
       O    19.18682    8.04845   -8.51312
      H1    19.54361    7.56596   -9.25870

