18
frame 9 | Written by MDAnalysis XYZWriter (release 2.4.3)
       H     1.89485  -17.35571  -10.03265
       O     1.55111  -17.84303  -10.79261
      H1     1.71882  -17.23871  -11.51610
       H    -1.98993  -17.12277  -11.74017
       O    -2.69001  -17.55266  -11.17445
      H1    -2.39426  -17.54772  -10.22523
       H    -1.47604  -14.29613  -10.19868
       O    -1.09651  -13.90885  -11.02536
      H1    -0.70101  -13.06681  -10.74556
       H    -3.05391  -15.97992   -5.80591
       O    -2.41561  -16.09233   -5.12563
      H1    -1.69386  -16.66487   -5.46734
       H    -0.09744  -17.43528   -9.69487
       O    -0.73982  -17.74820   -9.03939
      H1    -0.56134  -18.71475   -9.00765
       H     0.45243  -17.50819   -6.03063
       O    -0.49126  -17.84748   -6.13086
      H1    -0.57651  -17.77041   -7.07604

