18
frame 8 | Written by MDAnalysis XYZWriter (release 2.4.3)
       H    -5.45609  -18.96928  -16.02389
       O    -5.21140  -18.84093  -16.97470
      H1    -5.99423  -19.05116  -17.48586
       H     0.74888  -19.10502  -16.27940
       O     1.66204  -19.19132  -15.92095
      H1     1.48736  -19.83385  -15.22112
       H    -5.31529  -16.94871  -16.40129
       O    -6.07032  -16.29902  -16.55040
      H1    -5.62708  -15.49835  -16.80384
       H    -3.54557  -18.41072  -18.26949
       O    -2.88416  -18.80552  -18.84776
      H1    -2.61229  -18.11124  -19.49075
       H    -2.16542  -17.24329  -16.95457
       O    -2.86869  -16.62758  -16.68733
      H1    -2.74550  -16.58356  -15.67264
       H    -1.15621  -19.00189  -16.18459
       O    -0.73000  -18.40409  -16.86768
      H1    -1.07083  -18.79865  -17.67511

