18
frame 9 | Written by MDAnalysis XYZWriter (release 2.4.3)
       H    -2.26210  -14.69788   -4.01260
       O    -2.08773  -13.93801   -3.49115
      H1    -2.91172  -13.43016   -3.59930
       H    -4.39424  -11.51675   -4.03677
       O    -4.51009  -12.47647   -4.03454
      H1    -4.76977  -12.67420   -4.98164
       H    -3.67679  -15.14562   -7.83786
       O    -4.34616  -15.80504   -7.51373
      H1    -5.02568  -15.20953   -7.28018
       H    -6.29106  -13.52271   -3.46011
       O    -6.51114  -14.15096   -2.76829
      H1    -5.65892  -14.28471   -2.23150
       H    -6.58739  -13.82402   -6.16133
       O    -5.75097  -13.58987   -6.57224
      H1    -6.00477  -12.89967   -7.20978
       H    -4.10179   -9.57898   -3.06422
       O    -3.36831  -10.08501   -3.53522
      H1    -2.85214  -10.48203   -2.81650

