18
frame 8 | Written by MDAnalysis XYZWriter (release 2.4.3)
       H     8.00265    8.74767  -13.31503
       O     9.00430    8.72456  -13.19811
      H1     9.11218    8.31660  -12.29232
       H     4.28802    5.72155  -12.00182
       O     5.20880    5.61084  -12.32373
      H1     5.41554    4.68714  -12.14286
       H     7.63074    7.07119  -10.22346
       O     7.56145    6.75465  -11.13844
      H1     6.65439    6.55419  -11.38329
       H     5.08870    5.09789  -14.30779
       O     4.45765    4.97211  -15.01837
      H1     4.90366    4.95862  -15.83419
       H     6.17310    7.65783  -13.95768
       O     6.24933    8.57180  -13.61498
      H1     5.92263    8.54219  -12.70216
       H     4.60992    8.42688  -15.59033
       O     3.63473    8.49549  -15.39220
      H1     3.56952    9.07966  -14.59511

