18
frame 8 | Written by MDAnalysis XYZWriter (release 2.4.3)
       H   -16.58040    6.86535   10.16984
       O   -16.59763    7.32479   11.06278
      H1   -17.49911    7.76049   11.24841
       H   -14.85472    8.42392   10.58192
       O   -14.66543    9.28623   10.25650
      H1   -15.33893    9.81207   10.76857
       H   -16.01053    4.14989   12.12300
       O   -15.95426    4.50057   13.02660
      H1   -15.63882    5.37931   13.04736
       H   -15.05867    7.29409   12.55748
       O   -14.56485    6.85477   13.25817
      H1   -13.80110    6.39107   12.83974
       H   -19.48102    7.53485   12.19436
       O   -18.92738    8.29225   12.21307
      H1   -19.22605    8.72417   13.00024
       H   -17.01850    7.46876    8.20972
       O   -17.18426    6.54382    8.03065
      H1   -18.17798    6.48853    7.83942

