18
frame 9 | Written by MDAnalysis XYZWriter (release 2.4.3)
       H    12.40085    9.55473  -13.54718
       O    12.65683   10.27905  -14.14831
      H1    12.85531   10.95529  -13.55279
       H    12.92700   12.80723  -16.31428
       O    13.74226   13.30984  -16.40832
      H1    14.31117   13.07930  -15.67603
       H    17.24324   15.95280  -16.40700
       O    17.16691   15.44739  -15.51609
      H1    16.70655   14.62669  -15.65058
       H    16.49353   12.01549  -15.61577
       O    16.22848   12.82241  -15.13073
      H1    16.27249   12.46675  -14.24402
       H    12.99572   15.05899  -16.01346
       O    12.44916   15.86524  -15.95247
      H1    12.29776   16.18942  -16.88789
       H    14.17017   12.34749  -17.90230
       O    14.44635   11.94116  -18.71748
      H1    15.32046   11.62229  -18.59705

