18
frame 9 | Written by MDAnalysis XYZWriter (release 2.4.3)
       H     5.28916  -16.83832  -17.04657
       O     4.51847  -16.44256  -16.57453
      H1     4.68454  -15.47337  -16.73658
       H     6.74082  -18.10282  -15.97305
       O     6.59880  -18.91727  -15.44541
      H1     7.46348  -19.36807  -15.58616
       H     4.41683  -16.18122  -14.85243
       O     4.56146  -16.05745  -13.88435
      H1     4.55834  -15.08866  -13.70987
       H     5.33056  -16.39167  -11.94967
       O     5.48060  -16.22526  -11.03781
      H1     4.54486  -16.10179  -10.80569
       H     7.57988  -16.67065  -14.55496
       O     7.06203  -15.88521  -14.70229
      H1     6.17398  -16.09608  -14.31587
       H     7.12229  -13.45043  -16.77004
       O     6.56495  -13.43941  -15.99201
      H1     6.78933  -14.32682  -15.64603

