18
frame 9 | Written by MDAnalysis XYZWriter (release 2.4.3)
       H   -18.23847    1.06519   -5.45276
       O   -17.59456    1.78052   -5.70973
      H1   -17.04708    1.46344   -6.46556
       H   -19.45132    3.59971   -7.29562
       O   -19.32415    3.83066   -6.37238
      H1   -18.63166    3.21844   -6.17780
       H   -15.87760    2.14717   -4.74449
       O   -14.91833    2.19593   -4.58456
      H1   -14.61394    2.87263   -5.16347
       H   -15.34669    2.14566   -7.77856
       O   -15.97856    1.46806   -7.97401
      H1   -15.73596    0.76679   -7.32538
       H   -19.00946    2.10463   -8.80814
       O   -19.02740    3.06399   -8.99928
      H1   -19.84836    3.33381   -9.43007
       H   -17.85189    2.87131   -2.97924
       O   -18.31906    2.26139   -2.39531
      H1   -18.72956    1.59095   -2.93097

