18
frame 9 | Written by MDAnalysis XYZWriter (release 2.4.3)
       H     3.62764   16.33768  -10.59740
       O     2.83262   15.72878  -10.41191
      H1     2.14780   16.43201  -10.27019
       H    -1.85233   18.58665   -6.18601
       O    -1.01363   18.27667   -5.82431
      H1    -0.29678   18.37888   -6.48609
       H    -0.74839   19.01868  -10.71632
       O    -0.68085   18.79358   -9.78900
      H1    -1.59322   18.68273   -9.51624
       H     2.91211   18.49803   -8.71330
       O     3.78645   18.16512   -8.40244
      H1     4.34055   19.00646   -8.23871
       H    -0.14829   15.22825  -10.08616
       O    -0.57793   15.97232  -10.52012
      H1    -0.42054   16.74709   -9.96192
       H     1.05965   17.24586   -7.47789
       O     0.87783   18.14853   -7.68186
      H1     0.33790   18.18906   -8.49191

