18
frame 9 | Written by MDAnalysis XYZWriter (release 2.4.3)
       H    16.98196   -7.52579   18.86787
       O    16.39250   -7.92524   19.54396
      H1    16.27336   -8.87389   19.37145
       H    19.06304   -5.30579   18.36234
       O    19.41795   -4.37707   18.40336
      H1    19.73025   -4.43826   19.34606
       H    16.82460   -3.89788   18.87949
       O    16.13585   -3.35785   19.21299
      H1    16.23312   -3.24697   20.18354
       H    18.74597   -4.37804   14.76339
       O    18.02900   -4.32424   14.05301
      H1    17.68892   -3.40645   14.01786
       H    15.77042   -5.68216   15.61693
       O    16.27717   -5.05387   16.19450
      H1    17.01604   -4.89015   15.62725
       H    18.76886   -7.28741   17.34142
       O    18.14780   -6.66750   17.73994
      H1    17.51350   -6.41305   17.05801

