18
frame 0 | Written by MDAnalysis XYZWriter (release 2.4.3)
       H    15.67551   -2.15429  -15.07427
       O    16.02542   -1.78536  -14.30695
      H1    16.95650   -1.76890  -14.41359
       H    13.76522   -0.67897  -17.06172
       O    13.66619    0.20783  -16.70774
      H1    14.58165    0.50820  -16.64150
       H    15.83989   -2.37958  -17.31148
       O    15.03704   -2.31987  -16.73525
      H1    14.61131   -3.18436  -16.86030
       H    16.89598   -2.97516  -19.21218
       O    17.26407   -2.29604  -18.74995
      H1    18.16357   -2.51052  -18.51572
       H    13.12173   -3.83781  -17.26965
       O    13.70470   -4.55109  -16.94898
      H1    13.57312   -4.58166  -15.99667
       H    15.42247    2.77912  -17.72768
       O    15.91162    1.91659  -17.74091
      H1    15.63214    1.35658  -18.45002

