18
frame 9 | Written by MDAnalysis XYZWriter (release 2.4.3)
       H   -16.05058  -10.47461   -0.79062
       O   -16.52429   -9.88236   -0.17879
      H1   -15.96174  -10.05787    0.62283
       H   -19.02386  -13.61769    2.84276
       O   -19.52404  -12.88051    2.55164
      H1   -19.05501  -12.07448    2.78284
       H   -17.10347  -10.63796    2.76950
       O   -18.05494  -10.56363    2.99800
      H1   -18.08192  -10.78763    3.93906
       H   -19.08660   -9.10846    2.27028
       O   -19.44401   -8.33529    1.82681
      H1   -20.31902   -8.59590    1.37727
       H   -14.88502   -9.15837    2.46612
       O   -14.96197  -10.08360    2.20456
      H1   -14.10381  -10.29663    1.85953
       H   -15.42335  -11.33239    3.40309
       O   -15.69717  -11.85918    4.19040
      H1   -15.64950  -11.24819    4.91257

