18
frame 1 | Written by MDAnalysis XYZWriter (release 2.4.3)
       H     7.97019    5.11754   -8.91606
       O     8.86923    5.04474   -8.54920
      H1     8.84994    4.25578   -7.97106
       H    10.43041    1.86583   -7.38649
       O     9.50222    2.26439   -7.23421
      H1     8.89812    1.76520   -7.86923
       H     9.07745    3.86253  -11.89474
       O     8.75320    3.21127  -11.26767
      H1     8.74381    3.73480  -10.40186
       H     6.89849    0.69670   -9.78518
       O     7.17038    1.45856   -9.28291
      H1     6.44405    1.73179   -8.68043
       H    10.69780   -0.54224   -7.48800
       O    10.30014   -1.20640   -8.07517
      H1    10.21348   -2.06990   -7.59830
       H     8.75022    2.31278   -5.65401
       O     8.25485    2.28172   -4.78398
      H1     8.56161    3.01539   -4.24577

