18
frame 9 | Written by MDAnalysis XYZWriter (release 2.4.3)
       H   -15.86216  -18.21708   11.37111
       O   -16.47983  -17.67651   11.82741
      H1   -16.14074  -17.61538   12.73208
       H   -15.06722  -13.02930    8.95098
       O   -15.96753  -13.35312    8.88869
      H1   -16.07020  -13.99921    9.57771
       H   -15.10616  -12.05932   12.69603
       O   -15.12472  -11.13733   12.40077
      H1   -16.08995  -11.02713   12.22612
       H   -15.49195  -14.35441   12.42272
       O   -14.99343  -13.82018   13.03243
      H1   -15.33383  -14.07028   13.89959
       H   -17.31723  -12.22379    8.88872
       O   -18.14762  -11.68008    9.07616
      H1   -18.04263  -11.37658    9.98587
       H   -17.22660  -14.68361   11.19357
       O   -16.35017  -14.95235   11.00289
      H1   -16.44250  -15.94257   10.95668

