18
frame 9 | Written by MDAnalysis XYZWriter (release 2.4.3)
       H    -6.29973  -15.27444    6.35949
       O    -5.76642  -15.78455    5.65858
      H1    -6.31727  -16.25634    5.08999
       H    -7.38405  -17.98569    3.51371
       O    -6.56784  -17.44124    3.46484
      H1    -6.58852  -16.91299    2.67924
       H    -4.08054  -12.74175    1.43523
       O    -3.78724  -13.27850    2.20450
      H1    -4.59352  -13.50036    2.71320
       H    -4.09350  -12.78630    7.36391
       O    -3.98859  -13.45847    6.66532
      H1    -4.78383  -14.04031    6.75369
       H    -6.86606  -14.18363    2.77601
       O    -6.16608  -14.02093    3.40133
      H1    -6.03555  -14.72774    4.01735
       H    -5.12914  -12.28635    5.64394
       O    -5.63405  -11.92217    4.88878
      H1    -5.81480  -12.69351    4.28080

