18
frame 10 | Written by MDAnalysis XYZWriter (release 2.4.3)
       H    -3.06655   -3.18739   11.93523
       O    -3.50828   -2.47742   12.37514
      H1    -2.84299   -1.83057   12.70601
       H    -3.60962   -5.85564   12.20990
       O    -3.33700   -5.28283   11.45225
      H1    -4.13223   -5.08256   10.95829
       H    -7.41531   -4.56377   11.24566
       O    -7.03527   -4.85165   12.08279
      H1    -6.44615   -4.21023   12.56040
       H    -2.95866   -8.35883   10.71148
       O    -2.22780   -7.67862   10.45620
      H1    -2.49984   -6.77325   10.76959
       H    -5.14482   -3.06167    9.58545
       O    -4.45778   -2.41051    9.56619
      H1    -4.97424   -1.61699    9.89486
       H    -5.12667   -5.38814    8.41394
       O    -5.34917   -5.19969    9.35956
      H1    -5.71396   -6.06403    9.68420

