18
frame 9 | Written by MDAnalysis XYZWriter (release 2.4.3)
       H    13.18811    0.92419   -6.85167
       O    13.53329    0.51284   -7.66142
      H1    12.96402   -0.20027   -7.72605
       H    10.04562    1.49620   -7.47516
       O     9.90177    0.74873   -8.05495
      H1     9.12031    1.06192   -8.60374
       H     7.03129    1.41500   -9.21246
       O     7.73899    2.06186   -9.29061
      H1     7.46060    2.81734   -8.72976
       H     9.54826   -0.86076   -7.55705
       O     9.31917   -1.80859   -7.49705
      H1     8.91588   -1.88399   -6.63581
       H    10.92296    2.24828   -5.43453
       O    10.43095    2.77281   -6.10790
      H1    11.04470    3.40383   -6.38443
       H    11.56742    0.94603  -11.55134
       O    11.61687    0.83709  -10.60669
      H1    10.90989    1.45680  -10.35293

