18
frame 9 | Written by MDAnalysis XYZWriter (release 2.4.3)
       H     5.28916  -16.83832  -17.04657
       O     4.51847  -16.44256  -16.57453
      H1     4.68454  -15.47337  -16.73658
       H     3.24464  -18.88698  -16.91890
       O     3.72821  -19.27016  -17.73589
      H1     4.51039  -19.75834  -17.39309
       H     0.60748  -14.95314  -15.20883
       O     1.15973  -15.58366  -15.72367
      H1     1.58131  -16.11143  -15.04922
       H     2.03258  -16.35584  -17.28593
       O     2.25352  -16.45841  -18.23444
      H1     3.19193  -16.68401  -18.33852
       H     0.76245  -13.65096  -17.00634
       O     0.59678  -12.75597  -16.60715
      H1    -0.23241  -12.48606  -17.04894
       H     3.62282  -12.79810  -18.71779
       O     3.81899  -13.35230  -17.98440
      H1     3.75377  -12.71262  -17.22707

