18
frame 1 | Written by MDAnalysis XYZWriter (release 2.4.3)
       H     8.73121   17.56215   11.93395
       O     8.12420   17.40256   11.14814
      H1     7.67911   16.59834   11.40885
       H     6.42906   15.21030   12.52480
       O     7.29938   15.39718   12.88113
      H1     7.48691   14.54027   13.25728
       H     9.62068   16.93727   10.28219
       O    10.27460   16.74504    9.66753
      H1    11.11755   16.55234   10.03366
       H    10.97392   18.14456    9.02155
       O    11.34732   18.96192    8.52073
      H1    10.55185   19.54176    8.33998
       H     6.92440   16.51859   14.14910
       O     6.61308   17.09562   14.94440
      H1     6.00155   16.51538   15.45176
       H    10.19411   19.01549   13.14514
       O     9.66103   18.21456   13.21806
      H1     9.95791   17.89807   14.09836

