18
frame 9 | Written by MDAnalysis XYZWriter (release 2.4.3)
       H     2.96835   13.55846   -5.29287
       O     3.92120   13.71502   -5.19280
      H1     4.20911   14.44237   -5.81457
       H     8.00557   12.67973   -5.63987
       O     8.69577   13.10663   -5.10507
      H1     8.34589   13.87778   -4.68153
       H     4.37850   16.62477   -7.54369
       O     4.65874   15.94809   -6.88364
      H1     5.65488   16.15061   -6.79804
       H     4.70312   11.84669   -4.65088
       O     5.17305   11.03043   -4.73966
      H1     4.41770   10.38101   -4.62744
       H     6.24157   13.96884   -7.94848
       O     6.24837   13.23980   -7.24797
      H1     5.30272   13.03947   -7.06149
       H     7.31668   12.11880   -7.93797
       O     8.19421   12.01543   -8.30597
      H1     8.47102   11.12729   -8.25496

