18
frame 9 | Written by MDAnalysis XYZWriter (release 2.4.3)
       H    17.04179    3.80868  -10.16439
       O    17.65030    3.05383  -10.04121
      H1    17.36132    2.76543   -9.18475
       H    16.65370    6.00100   -8.47369
       O    17.05471    6.52954   -7.79362
      H1    17.75846    6.99790   -8.17049
       H    14.78423    3.81285   -8.00366
       O    15.09139    3.68476   -7.07526
      H1    15.63739    2.90106   -7.00648
       H    14.86197    5.02904   -9.89688
       O    15.71972    5.42940   -9.94588
      H1    15.82647    5.92182  -10.75394
       H    13.32677    3.40345  -10.44017
       O    13.66884    3.44844   -9.51528
      H1    13.40120    2.57499   -9.18663
       H    13.12876    6.82207   -9.07431
       O    12.40882    6.20621   -9.18562
      H1    12.72250    5.68246   -9.93814

