18
frame 10 | Written by MDAnalysis XYZWriter (release 2.4.3)
       H    18.16777    4.37735    6.84067
       O    17.76863    3.44938    6.74838
      H1    16.91174    3.68856    7.06089
       H    17.34570    6.39355    7.50544
       O    18.18716    5.87170    7.62244
      H1    18.85155    6.39566    7.19896
       H    15.44406    3.32535    8.27677
       O    15.05903    4.07346    7.74584
      H1    14.49298    4.52183    8.44141
       H    19.79907    2.64348    9.63239
       O    19.98681    3.19326    8.82195
      H1    19.15422    3.14032    8.39067
       H    16.63590    1.61360    9.40038
       O    16.04415    2.36214    9.54872
      H1    15.16039    1.96108    9.70901
       H    17.09274    3.51222    3.16206
       O    17.83689    3.65520    3.82208
      H1    17.45330    3.40303    4.67130

