18
frame 9 | Written by MDAnalysis XYZWriter (release 2.4.3)
       H   -14.76777  -13.44750   -0.50881
       O   -15.20070  -13.83423   -1.29442
      H1   -15.97491  -14.20316   -0.88183
       H   -15.95017  -18.56585    1.01373
       O   -15.52966  -17.72131    0.91810
      H1   -15.08343  -17.58613    1.71806
       H   -17.23114  -14.40065    1.68575
       O   -17.44519  -14.28430    0.76125
      H1   -18.29231  -13.87774    0.73246
       H   -17.75061  -15.71060   -0.41703
       O   -17.59214  -16.66812   -0.53669
      H1   -16.97225  -16.89657    0.15782
       H   -17.86908  -17.98764   -1.54013
       O   -18.25801  -18.70613   -2.02210
      H1   -17.67480  -18.77845   -2.75492
       H   -19.05853  -17.97132    0.34680
       O   -19.60202  -18.66750    0.76320
      H1   -19.95193  -19.21017    0.07711

