18
frame 9 | Written by MDAnalysis XYZWriter (release 2.4.3)
       H     3.97176   -3.87900    8.83615
       O     4.58537   -3.49241    9.49661
      H1     5.27518   -4.16746    9.68035
       H     2.69168   -2.97736    7.39292
       O     2.82129   -3.93690    7.52981
      H1     1.89703   -4.21056    7.43825
       H    -0.87563   -2.66130    7.88682
       O    -1.58818   -2.13120    7.54641
      H1    -1.15610   -1.42974    7.02129
       H     2.27146   -4.79934   10.94218
       O     1.38719   -4.89030   10.63027
      H1     0.98438   -4.02440   10.72559
       H     2.56684   -0.86908    6.75484
       O     1.73918   -1.00635    7.26308
      H1     1.80455   -0.42994    8.03796
       H     0.21761   -5.63714    7.60236
       O     0.42511   -4.86845    8.09789
      H1     0.75469   -5.06773    8.94763

