18
frame 9 | Written by MDAnalysis XYZWriter (release 2.4.3)
       H   -17.31022   17.15500    9.86597
       O   -18.11695   17.70529    9.99560
      H1   -18.88264   17.31889    9.45610
       H   -19.09952   15.99327   17.32586
       O   -19.76700   16.02523   16.61915
      H1   -19.46415   15.73970   15.75518
       H   -16.38504   18.48750   12.91191
       O   -17.28467   18.85184   12.91072
      H1   -17.35955   19.37850   12.10414
       H   -17.42152   14.78087   14.43996
       O   -18.36732   14.96057   14.30509
      H1   -18.40985   15.65098   13.62640
       H   -18.92489   16.64014   11.69149
       O   -19.18580   16.82683   12.61460
      H1   -18.82961   17.70737   12.87652
       H   -19.13770   14.69972   12.14887
       O   -18.80182   14.36057   11.27408
      H1   -19.69780   14.32518   10.87897

