18
frame 10 | Written by MDAnalysis XYZWriter (release 2.4.3)
       H    17.41020  -14.12898   17.46929
       O    16.89667  -14.91380   17.60705
      H1    17.45607  -15.65752   17.97641
       H    14.39153  -18.73041   15.73474
       O    14.52072  -18.00839   16.31657
      H1    13.75572  -17.46447   16.30457
       H    18.33083  -17.09388   19.58708
       O    18.40148  -17.23803   18.65286
      H1    19.37101  -17.44248   18.54667
       H    17.75384  -18.80764   18.79041
       O    17.52613  -19.73443   19.15400
      H1    17.28188  -20.22728   18.39027
       H    16.97958  -15.75226   15.62437
       O    16.39510  -16.36532   15.21152
      H1    16.05902  -16.95402   15.93095
       H    14.35524  -18.60902   18.46730
       O    13.86993  -18.93655   19.20486
      H1    13.07553  -18.32554   19.25512

