21
frame 1 | Written by MDAnalysis XYZWriter (release 2.4.3)
       H    -2.26848    9.45697   14.11831
       O    -3.08180    9.47373   13.61340
      H1    -2.94989   10.26332   13.07099
       H     0.68855   13.01965   17.22940
       O    -0.12344   12.48934   17.04325
      H1    -0.73736   12.58286   17.81846
       H    -0.87666   13.56684   15.94448
       O    -1.45371   13.96325   15.31150
      H1    -1.44719   14.91489   15.35797
       H    -1.60535   10.32015   15.73886
       O    -1.16209    9.45687   15.85813
      H1    -0.27942    9.63896   16.24765
       H    -2.53404   12.51143   15.64807
       O    -2.82031   11.62979   15.75259
      H1    -3.69480   11.69670   16.18584
       H    -5.79312   10.71364   17.56440
       O    -5.12106   11.26763   17.24794
      H1    -5.46569   12.16685   17.19564
       H    -3.86320    9.81083   17.49175
       O    -3.47515    8.89641   17.49083
      H1    -2.77537    9.03092   16.83491

