21
frame 1 | Written by MDAnalysis XYZWriter (release 2.4.3)
       H   -18.22013    5.64581   19.45976
       O   -17.42765    6.11456   19.88326
      H1   -17.30546    6.84336   19.30164
       H   -17.73582    7.80310   16.56316
       O   -18.19249    8.04389   17.36808
      H1   -18.27643    9.01345   17.33397
       H   -14.94123    5.11110   18.54655
       O   -14.38083    4.39163   18.89615
      H1   -13.53257    4.86578   19.12660
       H   -17.76319   11.32590   17.69885
       O   -18.52695   10.79837   17.41510
      H1   -19.39629   11.03075   17.80912
       H   -14.24406    7.85103   18.90183
       O   -15.14032    7.88712   19.29536
      H1   -15.11928    7.15262   19.93815
       H   -15.61845    6.58055   15.54910
       O   -14.78679    6.05568   15.47147
      H1   -15.03078    5.17872   15.73034
       H   -18.66714    3.00597   18.83521
       O   -18.20968    2.24056   18.54169
      H1   -17.39850    2.29601   19.05179

