21
frame 1 | Written by MDAnalysis XYZWriter (release 2.4.3)
       H     8.43372   12.38902    8.87169
       O     9.18523   12.92556    8.58176
      H1     9.44929   12.56066    7.74384
       H     9.31184   15.96391    8.42451
       O     8.60766   15.48641    7.94122
      H1     8.79070   14.53057    8.15363
       H     6.93361   11.45154   10.46773
       O     7.69024   11.04718   10.08762
      H1     8.41095   11.40849   10.60649
       H    10.98884   11.25717    6.78050
       O    10.12527   11.49222    6.50733
      H1    10.22347   12.15664    5.75230
       H     7.29183   10.27051    8.30067
       O     7.09404   10.23749    7.35646
      H1     7.78781    9.67840    6.97267
       H     6.71569   15.26137    8.96461
       O     5.91510   14.86287    9.32488
      H1     5.45551   14.71883    8.55248
       H    11.13618   13.28430    9.73861
       O    11.49567   12.81546   10.44655
      H1    10.75075   12.60747   10.99457

