21
frame 1 | Written by MDAnalysis XYZWriter (release 2.4.3)
       H   -15.37687   18.03738   -1.13319
       O   -15.94960   17.30564   -1.33286
      H1   -16.02143   17.21839   -2.28749
       H   -15.51848   15.05099    0.50970
       O   -16.43324   14.82015    0.48013
      H1   -16.87172   15.47744   -0.13950
       H   -18.98068   17.77034    0.31022
       O   -18.65288   17.85888   -0.58406
      H1   -17.70643   17.72325   -0.59780
       H   -17.87733   16.87619    2.59860
       O   -17.06688   16.43075    2.81242
      H1   -16.77505   16.06353    1.93689
       H   -18.77510   12.46955   -3.69630
       O   -18.01158   12.92406   -3.33329
      H1   -18.27002   13.09770   -2.41431
       H   -17.50980   19.39956   -2.99233
       O   -18.43960   19.66365   -2.79661
      H1   -18.64299   19.15558   -1.98551
       H   -18.77561   16.10710   -0.86360
       O   -18.65527   15.26934   -1.38881
      H1   -18.71416   14.62344   -0.68664

