21
frame 1 | Written by MDAnalysis XYZWriter (release 2.4.3)
       H   -17.92987    8.00925  -16.76497
       O   -17.93932    7.07595  -16.92228
      H1   -17.77382    6.84278  -17.87260
       H   -16.97344   10.78656  -18.79189
       O   -17.67617   11.21249  -18.35746
      H1   -17.56553   10.87049  -17.43963
       H   -18.55442    9.79679  -15.68850
       O   -17.67150    9.60462  -16.07431
      H1   -17.15308    9.22723  -15.33586
       H   -15.80826   11.33755  -14.84039
       O   -15.95541   11.10737  -13.92482
      H1   -16.77880   11.45003  -13.70742
       H   -14.51379   10.89989  -17.12099
       O   -14.70534   10.42450  -16.34178
      H1   -13.89658   10.18945  -15.83492
       H   -15.85195    6.29266  -16.80993
       O   -14.96276    6.65090  -16.72437
      H1   -14.93054    7.33864  -16.07667
       H   -14.99838    8.33126  -13.46468
       O   -15.51000    8.46578  -14.26248
      H1   -15.73493    9.41526  -14.19076

