21
frame 2 | Written by MDAnalysis XYZWriter (release 2.4.3)
       H     8.95308   -0.95879    0.09298
       O     8.21523   -1.58298    0.10831
      H1     8.64506   -2.40036    0.27709
       H    11.90467   -1.36678   -0.01711
       O    12.45698   -1.25463   -0.83469
      H1    12.63308   -2.19940   -1.15586
       H     5.52720   -2.23654    1.92637
       O     5.81788   -2.87826    1.21496
      H1     6.45903   -2.34774    0.71089
       H     9.46938   -1.24218    2.83269
       O     8.89743   -0.98831    3.50317
      H1     8.08094   -0.73257    3.01639
       H    11.53587   -0.47857    1.73939
       O    10.89986   -1.18388    1.55880
      H1    11.18671   -1.93294    2.12683
       H     8.67601   -1.71164   -1.97458
       O     9.34662   -1.89246   -2.62063
      H1     9.86607   -1.09974   -2.76417
       H     9.97014    0.94127   -1.36449
       O     9.32408    1.02497   -0.64755
      H1     9.89046    1.22348    0.13556

