21
frame 1 | Written by MDAnalysis XYZWriter (release 2.4.3)
       H   -16.96028   11.45851   -1.17929
       O   -16.15058   11.00078   -1.34912
      H1   -15.88675   11.13186   -2.27570
       H   -13.76018    9.30493   -1.57160
       O   -13.48151    9.26201   -2.50099
      H1   -13.92244    9.97526   -3.01481
       H   -17.26968    6.56731   -3.04513
       O   -17.52880    7.49424   -2.85874
      H1   -17.11124    7.65819   -1.98863
       H   -13.51711    8.39128    0.44945
       O   -14.15436    9.06004    0.12357
      H1   -15.03193    8.67915    0.07721
       H   -17.14563   10.59027    2.20793
       O   -17.75948    9.81751    2.18376
      H1   -17.44379    9.21882    2.83433
       H   -19.62601   11.29269   -0.34161
       O   -19.09982   12.10729   -0.61051
      H1   -19.09326   12.51643    0.28475
       H   -17.24872    8.31615    0.60856
       O   -16.78826    8.43196   -0.21934
      H1   -16.92256    9.40959   -0.46918

