21
frame 1 | Written by MDAnalysis XYZWriter (release 2.4.3)
       H   -15.21821   -0.30651  -17.37776
       O   -14.30341   -0.31612  -17.17509
      H1   -14.22806    0.40853  -16.56761
       H   -12.55404    1.05137  -19.86103
       O   -13.32607    0.48657  -19.98413
      H1   -13.48860    0.17815  -19.07504
       H   -15.14037    2.94548  -19.66092
       O   -15.64055    2.18812  -19.39066
      H1   -15.26725    1.48437  -19.88989
       H   -18.14479   -2.57392  -15.78863
       O   -18.23729   -2.47947  -16.70992
      H1   -18.64928   -1.59599  -16.76237
       H   -16.56680    0.94164  -18.40473
       O   -16.82088    0.08787  -17.99185
      H1   -16.89251   -0.59324  -18.70472
       H   -18.71305    0.17865  -17.27053
       O   -19.55163    0.43998  -16.89259
      H1   -20.25786    0.25141  -17.57110
       H   -15.14602   -0.96848  -15.66373
       O   -15.18438   -1.17495  -14.72564
      H1   -15.40152   -2.11049  -14.73469

