21
frame 1 | Written by MDAnalysis XYZWriter (release 2.4.3)
       H    -4.96524   -6.32950    5.00598
       O    -4.98829   -5.43324    5.27255
      H1    -4.78073   -4.95386    4.45654
       H    -5.76890   -4.59270    2.03910
       O    -4.96090   -4.26669    2.43318
      H1    -4.88788   -3.38537    2.09778
       H    -4.12955   -5.55711   -0.57388
       O    -5.01591   -5.92114   -0.70642
      H1    -5.28725   -5.42350   -1.44053
       H    -2.36908   -1.35432    2.00911
       O    -1.39462   -1.28617    1.91751
      H1    -1.15398   -0.56976    1.38386
       H    -4.46715   -1.57107    2.68141
       O    -4.18363   -1.74768    1.68234
      H1    -4.73263   -1.18560    1.09949
       H    -3.43614   -5.11767    2.24306
       O    -2.57608   -5.46572    2.53473
      H1    -2.67564   -6.45548    2.79548
       H    -7.67171   -5.83842    1.57123
       O    -7.02689   -5.28701    1.06902
      H1    -6.31164   -5.88079    0.81752

