21
frame 1 | Written by MDAnalysis XYZWriter (release 2.4.3)
       H   -13.22333   -8.92572  -10.12056
       O   -13.55032   -9.31295  -10.93684
      H1   -14.50709   -9.35038  -10.90862
       H   -13.54642  -11.12663  -13.32860
       O   -12.99655  -11.58884  -12.70558
      H1   -13.11030  -11.10827  -11.84952
       H   -12.29986   -8.81803   -8.26862
       O   -12.01853   -8.09762   -8.82727
      H1   -12.85365   -7.69739   -9.03276
       H   -11.34048   -7.36675  -10.58112
       O   -11.36279   -6.71286  -11.29198
      H1   -11.56403   -7.12136  -12.10779
       H   -14.35191   -6.14858   -9.30458
       O   -14.31921   -6.59788   -8.47700
      H1   -13.78460   -6.01184   -7.91595
       H   -11.30295  -11.27034  -10.46654
       O   -11.83316  -11.41370   -9.63993
      H1   -12.24643  -12.29045   -9.88786
       H   -12.86007  -10.46520   -8.06726
       O   -13.33947  -10.11366   -7.30588
      H1   -14.25000  -10.24493   -7.50637

