21
frame 1 | Written by MDAnalysis XYZWriter (release 2.4.3)
       H    -7.58005   16.25908    5.42282
       O    -8.44545   16.45124    5.10978
      H1    -8.56603   15.80979    4.41756
       H    -7.83753   12.27804    6.68721
       O    -7.77871   13.13192    7.07901
      H1    -8.60748   13.57411    6.88271
       H   -10.29903   15.89663    7.70874
       O   -10.05086   15.36786    6.93902
      H1    -9.50892   15.94135    6.37369
       H    -7.33424   12.94743    8.71907
       O    -7.14727   13.06447    9.67642
      H1    -6.98881   12.13302   10.03116
       H   -10.30885   10.98170    6.98764
       O   -10.12331   10.79944    6.06139
      H1   -10.29806    9.83174    6.12227
       H    -7.29630   10.35714    5.10535
       O    -7.31210   10.66610    6.02250
      H1    -8.26661   10.63041    6.14865
       H   -12.18223   13.41956    8.12955
       O   -11.62568   13.13416    7.38240
      H1   -11.10465   13.89339    7.16182

