21
frame 1 | Written by MDAnalysis XYZWriter (release 2.4.3)
       H    -6.80248   -5.30394    5.59838
       O    -7.77618   -5.25442    5.71983
      H1    -8.10351   -4.98426    4.87972
       H    -9.68960   -1.54531    2.34684
       O    -8.68650   -1.64795    2.28572
      H1    -8.51554   -0.91400    2.87431
       H    -9.86178   -4.49237    2.55134
       O    -9.30411   -4.11729    3.26168
      H1    -8.93043   -3.30601    2.94032
       H   -11.30578   -1.00917    4.50931
       O   -11.14647   -0.05409    4.46286
      H1   -10.19848   -0.00840    4.42138
       H   -10.38531   -3.26196    4.49635
       O   -11.04905   -2.83737    4.94717
      H1   -11.44561   -3.64347    5.33713
       H    -8.39342   -3.27639    6.03289
       O    -8.87050   -2.62739    6.54234
      H1    -9.78540   -2.63283    6.26484
       H   -11.48101   -2.74791    1.68554
       O   -11.41404   -1.79401    1.71060
      H1   -12.31612   -1.49808    1.84917

