21
frame 1 | Written by MDAnalysis XYZWriter (release 2.4.3)
       H    19.07243   16.87303  -16.93337
       O    19.82388   16.96144  -17.53498
      H1    19.81780   17.82847  -18.02018
       H    15.11202   14.63878  -15.57576
       O    15.28546   14.62599  -14.60923
      H1    14.93804   13.73238  -14.36883
       H    17.11766   15.60098  -12.11121
       O    16.82973   15.88495  -11.24799
      H1    16.37434   15.15499  -10.82871
       H    17.73333   17.08440  -14.77676
       O    17.71277   17.62252  -15.61301
      H1    16.71503   17.64020  -15.89580
       H    18.85108   19.81268  -11.24355
       O    19.26210   19.16588  -11.82425
      H1    18.60236   18.47842  -11.98969
       H    19.10970   16.01852  -13.52894
       O    18.12033   15.78461  -13.64017
      H1    18.14251   14.99872  -14.22937
       H    14.94158   18.39389  -16.28610
       O    14.85989   17.45767  -16.46268
      H1    14.31675   17.02555  -15.74715

