21
frame 1 | Written by MDAnalysis XYZWriter (release 2.4.3)
       H   -14.92050   19.73330  -16.86864
       O   -15.15220   18.82448  -16.73461
      H1   -15.18735   18.58361  -17.69059
       H   -13.34295   16.67279  -19.77032
       O   -13.70222   16.30899  -18.96667
      H1   -14.58914   16.04662  -19.22817
       H   -13.59919   12.98057  -18.71372
       O   -13.22096   13.49539  -17.98989
      H1   -13.32182   14.40443  -18.27413
       H   -18.74566   14.33433  -17.21063
       O   -18.51949   13.97711  -18.04809
      H1   -18.10830   13.19471  -17.73156
       H   -18.00805   18.13974  -16.28422
       O   -17.55978   18.67888  -15.64392
      H1   -16.63966   18.59490  -16.01022
       H   -15.01123   13.47107  -17.15605
       O   -15.88984   13.78664  -16.93823
      H1   -16.25451   14.25049  -17.65320
       H   -16.16649   14.95665  -19.77733
       O   -16.59196   15.51873  -19.13259
      H1   -17.34463   15.03575  -18.83341

