21
frame 1 | Written by MDAnalysis XYZWriter (release 2.4.3)
       H    -8.81526  -18.38227    1.32012
       O    -9.28236  -18.94049    0.69265
      H1   -10.20713  -18.81744    1.01832
       H    -5.84409  -17.49162    6.68293
       O    -5.76379  -17.02407    5.83084
      H1    -6.04156  -17.66318    5.19552
       H    -9.84189  -16.33870    7.74117
       O    -9.87810  -16.93042    6.91964
      H1    -9.21447  -17.56955    7.00406
       H    -9.87169  -17.25241    2.55791
       O    -9.10101  -17.61074    3.00365
      H1    -9.33857  -18.48430    3.20054
       H   -12.31858  -16.84749    2.75263
       O   -11.51845  -16.67966    2.19254
      H1   -11.70938  -15.93340    1.66269
       H    -7.66882  -15.82783    3.12111
       O    -6.91007  -15.43988    2.65361
      H1    -7.15230  -15.62774    1.71123
       H    -9.15089  -15.79768    5.88418
       O    -8.59117  -15.17832    5.40788
      H1    -7.75338  -15.69126    5.29741

