21
frame 2 | Written by MDAnalysis XYZWriter (release 2.4.3)
       H    16.65686   -1.02479   12.53184
       O    16.34568   -1.71263   13.12687
      H1    15.62414   -1.39355   13.65826
       H    13.73827    0.50806   11.29405
       O    13.66246   -0.41966   11.67037
      H1    13.88463   -1.02183   10.96509
       H    15.39822    2.20109   12.61104
       O    15.49424    2.68645   13.43986
      H1    15.22684    2.03734   14.10434
       H    18.39450    1.61300    9.01260
       O    18.47516    2.53376    9.30234
      H1    18.12200    2.98439    8.53349
       H    18.24801   -0.62042    7.92270
       O    17.75746    0.11603    8.23961
      H1    16.91957    0.14412    7.79601
       H    16.35010   -0.79838   10.58068
       O    17.04055   -0.21538   10.92020
      H1    17.70947   -0.17196   10.19008
       H    15.21600    2.60234    9.88366
       O    15.29547    2.01931   10.69637
      H1    16.01131    1.40405   10.51079

