21
frame 0 | Written by MDAnalysis XYZWriter (release 2.4.3)
       H   -18.66085   12.46746    4.54428
       O   -18.68849   12.00830    5.39420
      H1   -18.96429   12.62424    6.07469
       H   -16.76718   16.42579    5.60248
       O   -17.33144   17.16703    5.94091
      H1   -17.06006   17.68924    6.72140
       H   -17.67905   19.12893    8.31481
       O   -16.87840   18.61651    8.09336
      H1   -16.95716   17.82106    8.63754
       H   -17.14783   13.52413    2.91998
       O   -18.05014   13.62792    3.29402
      H1   -17.94229   14.40940    3.80561
       H   -19.77193   13.54627    8.09259
       O   -18.91920   13.68719    7.74623
      H1   -19.09073   14.44480    7.16293
       H   -18.46032   18.76348    5.21063
       O   -19.05023   19.06474    4.50350
      H1   -18.97741   18.34879    3.90127
       H   -18.90550   16.38094    6.19593
       O   -19.64863   15.73106    5.91401
      H1   -20.46831   16.20330    6.12818

