21
frame 2 | Written by MDAnalysis XYZWriter (release 2.4.3)
       H   -14.60717   -0.27621   15.13207
       O   -13.65909   -0.48734   15.08884
      H1   -13.54454   -0.82319   14.20435
       H   -10.79669   -4.76321   16.37268
       O   -10.68253   -3.87417   16.06319
      H1    -9.80853   -3.86538   15.79045
       H   -13.00936   -0.12013   19.07951
       O   -13.85619    0.28534   19.08320
      H1   -14.54584   -0.37417   19.27812
       H   -10.16299   -1.12834   19.57571
       O   -10.86886   -0.42597   19.51386
      H1   -11.36156   -0.77889   18.77285
       H   -12.78718   -1.44057   16.55059
       O   -12.33309   -1.91026   17.26245
      H1   -11.78532   -2.59383   16.79769
       H   -10.50101    0.79970   15.16403
       O    -9.57288    0.62295   15.14266
      H1    -9.37145    0.24113   16.00532
       H   -14.34203   -4.32209   17.44797
       O   -14.28441   -3.61593   18.13178
      H1   -13.70934   -2.93332   17.75083

