21
frame 2 | Written by MDAnalysis XYZWriter (release 2.4.3)
       H   -19.25924   -1.08876   -4.91814
       O   -19.03767   -0.22795   -5.27671
      H1   -18.46450    0.13546   -4.60888
       H   -18.53699    4.58928   -9.99612
       O   -19.10622    3.91536  -10.33503
      H1   -19.00509    3.09087   -9.79517
       H   -16.43634   -0.98790   -7.99129
       O   -15.77562   -1.70605   -8.13940
      H1   -15.48593   -1.72959   -9.06032
       H   -19.66190   -2.94735   -8.16667
       O   -18.79517   -2.86189   -8.55260
      H1   -18.46418   -2.01404   -8.18534
       H   -19.95441   -1.24110  -10.51275
       O   -19.11346   -1.57106  -10.80563
      H1   -18.84035   -2.17821  -10.08444
       H   -18.24211   -0.15627   -6.63827
       O   -17.93417   -0.35188   -7.60714
      H1   -18.37342    0.23256   -8.22473
       H   -15.44057    1.98146   -9.88600
       O   -14.93724    1.78567   -9.07036
      H1   -15.37182    2.17268   -8.32444

