21
frame 0 | Written by MDAnalysis XYZWriter (release 2.4.3)
       H    -9.93888   13.22973   15.38106
       O    -9.46397   13.68788   14.71454
      H1    -9.12051   14.47646   15.09929
       H   -14.63057   11.53299   16.64535
       O   -13.76220   11.31063   16.25252
      H1   -13.87227   11.24914   15.27044
       H   -10.70498   11.46904   17.28982
       O   -11.05020   12.29049   16.84688
      H1   -11.95004   12.01478   16.55934
       H   -11.48838   13.36638   18.15797
       O   -11.76942   13.79872   18.98397
      H1   -11.08500   14.44925   19.20539
       H    -9.17310   10.67818   13.84449
       O    -9.29737   10.28388   14.72869
      H1    -8.60092    9.63248   14.88707
       H   -11.28756    7.97334   15.69588
       O   -10.85795    8.21343   14.87867
      H1   -10.37038    9.08845   15.04257
       H    -9.64567    9.05633   18.75406
       O    -9.24652    9.81737   18.26138
      H1    -8.59710   10.15981   18.91161

