21
frame 3 | Written by MDAnalysis XYZWriter (release 2.4.3)
       H     6.61826  -12.75513  -11.30677
       O     5.78243  -12.74215  -11.75614
      H1     5.89066  -12.62293  -12.69403
       H     0.32854  -13.89226  -12.78013
       O     0.41149  -13.72195  -13.71358
      H1    -0.42785  -13.34414  -13.83559
       H     4.14804  -16.27293  -13.12585
       O     3.15723  -16.23655  -12.92326
      H1     2.68059  -16.17252  -13.78152
       H     3.10627  -14.23390  -12.21857
       O     3.31801  -13.48042  -11.58591
      H1     4.25256  -13.17009  -11.60366
       H     1.37934  -13.04091  -10.41019
       O     0.49156  -13.37439  -10.42564
      H1     0.56030  -14.04937   -9.74700
       H     3.36951  -14.66812   -9.96723
       O     3.50175  -14.88906   -9.05570
      H1     4.47029  -14.88340   -8.94533
       H     2.97878  -11.97554  -12.25202
       O     3.10085  -11.03872  -12.49188
      H1     2.40932  -10.71340  -13.08610

