21
frame 2 | Written by MDAnalysis XYZWriter (release 2.4.3)
       H   -13.30284    3.56428   17.01633
       O   -12.40353    3.76489   16.66042
      H1   -11.84556    3.36234   17.37031
       H   -14.02464    5.13329   14.27831
       O   -13.90812    5.37650   13.32837
      H1   -12.95221    5.36135   13.15029
       H   -14.14928    9.90055   15.70374
       O   -13.96434    8.98699   15.54727
      H1   -14.04483    8.64757   16.46920
       H   -14.29863    6.37955   16.92870
       O   -13.69849    6.79583   17.61604
      H1   -12.85920    6.76531   17.15849
       H   -12.84318    8.29394   14.26194
       O   -12.19383    7.97494   13.62420
      H1   -11.50087    8.68988   13.61263
       H   -15.99948    6.30047   15.21795
       O   -15.54806    5.62691   15.70726
      H1   -15.95050    4.79948   15.44019
       H   -11.36680    5.62749   16.88273
       O   -11.14589    6.44623   16.39535
      H1   -11.23308    6.20503   15.43101

