21
frame 2 | Written by MDAnalysis XYZWriter (release 2.4.3)
       H   -18.53699    4.58928   -9.99612
       O   -19.10622    3.91536  -10.33503
      H1   -19.00509    3.09087   -9.79517
       H   -16.11423    2.29648  -12.05220
       O   -16.52744    3.03467  -11.50739
      H1   -17.39043    3.04586  -11.93645
       H   -17.56393    6.43550  -12.94798
       O   -16.67479    6.12301  -13.20720
      H1   -16.16939    6.91528  -13.43235
       H   -14.42821    7.06056   -9.18648
       O   -15.30863    7.40132   -8.90637
      H1   -15.92883    6.86040   -9.45228
       H   -17.94242    6.97470   -7.32420
       O   -17.11981    6.97067   -6.83941
      H1   -16.44448    6.99088   -7.52263
       H   -19.11886    8.34197  -11.62817
       O   -18.87373    7.60189  -11.06697
      H1   -19.69891    7.11399  -10.95252
       H   -16.80821    5.25330  -10.71157
       O   -17.16289    5.79699  -10.00117
      H1   -17.64863    6.51162  -10.57526

