21
frame 0 | Written by MDAnalysis XYZWriter (release 2.4.3)
       H     9.37042    1.74444   -4.37831
       O     9.74424    0.80860   -4.13545
      H1    10.65346    1.09574   -3.99796
       H    12.03115    2.56040   -4.30131
       O    12.38010    1.72357   -3.97014
      H1    12.41851    1.82805   -2.95601
       H     5.62140    5.07163   -5.54459
       O     6.30411    4.74571   -6.12538
      H1     6.89963    4.17833   -5.62336
       H     9.91495    4.77723   -2.02624
       O    10.37549    4.23948   -2.64160
      H1    11.25135    4.31071   -2.19696
       H     6.96254    3.28759   -2.86326
       O     7.16604    3.36123   -1.95148
      H1     7.88215    2.73528   -1.82960
       H     9.30689    3.26246   -5.59785
       O     8.86448    3.33926   -4.71757
      H1     9.39984    3.85844   -4.09190
       H    10.78764    5.83609   -4.82866
       O    10.55434    6.73287   -4.52888
      H1     9.75517    7.02642   -4.99366

