21
frame 2 | Written by MDAnalysis XYZWriter (release 2.4.3)
       H    -0.71873    9.81902    7.93916
       O    -1.67363    9.78370    8.13940
      H1    -1.96120    8.92697    7.90167
       H    -0.53940    7.35505   10.23818
       O    -1.41421    6.89398   10.19584
      H1    -2.08642    7.33242   10.66328
       H    -4.16374   10.62749   10.11626
       O    -3.21662   10.77555   10.19246
      H1    -2.65391   10.33465    9.53691
       H    -2.07682    7.01491    8.59364
       O    -2.23814    7.03682    7.64068
      H1    -1.46542    6.61628    7.24751
       H    -4.83089    8.62980    8.50879
       O    -5.34582    8.81105    9.31252
      H1    -4.80428    8.42986   10.00058
       H    -2.70168   11.51493    7.20157
       O    -3.08804   12.22895    6.62343
      H1    -3.99576   11.91393    6.48617
       H    -5.47740    6.93627    6.99673
       O    -4.82828    7.62168    6.92184
      H1    -3.94571    7.25364    6.99990

