21
frame 2 | Written by MDAnalysis XYZWriter (release 2.4.3)
       H    14.23934   13.95487   17.46493
       O    13.80915   14.42608   18.21337
      H1    13.76453   13.77436   18.90598
       H    19.59489    7.92178   17.74533
       O    18.62381    8.05769   17.71428
      H1    18.42401    9.01819   17.43695
       H    18.88847   14.30195   15.11066
       O    18.78172   14.51581   16.03617
      H1    17.75142   14.38358   16.06849
       H    18.11240   11.82202   17.87592
       O    17.30363   11.32583   17.69763
      H1    17.07129   11.39854   16.79162
       H    19.20237   13.81106   17.55809
       O    19.37975   13.21290   18.32339
      H1    19.32943   13.80453   19.08741
       H    15.61770   14.55739   16.02861
       O    16.18145   13.78840   16.28275
      H1    16.20951   13.64410   17.23923
       H    15.47451   10.69135   18.58006
       O    15.01053   10.62026   19.39672
      H1    15.53615   11.10224   20.03855

