21
frame 0 | Written by MDAnalysis XYZWriter (release 2.4.3)
       H     3.75955   -2.22800    5.00858
       O     3.17357   -1.53909    5.27817
      H1     3.43617   -0.67120    4.88289
       H     1.48096   -1.20245    4.64873
       O     0.61725   -0.79781    4.87065
      H1     0.17528   -0.72239    3.99996
       H    -0.60671   -2.02977    5.65287
       O    -1.20720   -2.41277    6.31090
      H1    -1.41118   -1.78168    6.95119
       H    -3.45174    0.13638    5.73753
       O    -2.68068    0.10194    5.13539
      H1    -1.99155    0.04565    5.81713
       H    -1.47406   -1.36134    2.35189
       O    -0.54182   -0.98338    2.50278
      H1    -0.60089   -0.11270    2.01048
       H    -0.74247    1.31293    7.43659
       O    -0.59779    0.45064    7.02623
      H1     0.07836    0.48673    6.35470
       H     4.29729   -1.47348    1.91736
       O     3.38261   -1.28802    1.56997
      H1     2.83673   -1.16826    2.37573

