21
frame 0 | Written by MDAnalysis XYZWriter (release 2.4.3)
       H    -0.31867  -12.12682   12.62242
       O    -0.15941  -12.40563   11.74005
      H1    -0.92630  -12.08253   11.13849
       H     4.55237  -14.18654   11.23734
       O     5.31617  -14.73835   11.49866
      H1     5.75434  -14.80846   10.61961
       H     4.51372  -12.73273    8.11635
       O     3.78653  -13.33445    7.84123
      H1     4.12882  -13.96420    7.26151
       H     3.74065  -10.58660   10.53350
       O     3.03933  -10.77854   11.17428
      H1     2.62465  -11.62630   10.88185
       H     1.98510  -15.15947   10.44572
       O     1.66437  -16.07753   10.25493
      H1     2.13336  -16.62711   10.89517
       H     1.49379  -13.24071    9.92951
       O     2.38592  -13.52154   10.23204
      H1     2.86555  -13.45097    9.40352
       H     0.23677  -15.45398   10.88048
       O    -0.54047  -15.01612   11.25474
      H1    -0.14355  -14.14244   11.40614

