21
frame 3 | Written by MDAnalysis XYZWriter (release 2.4.3)
       H    -2.58334  -12.96355   18.80007
       O    -3.49524  -12.91050   18.58496
      H1    -3.46627  -12.40836   17.77102
       H    -0.10180  -13.79627   19.11386
       O    -0.28044  -12.91060   18.86090
      H1     0.36676  -12.73548   18.14568
       H    -4.42609  -13.13352   16.06602
       O    -4.02399  -12.29629   15.79463
      H1    -3.34088  -12.55575   15.12947
       H    -2.77566   -9.18498   16.49930
       O    -2.93142   -9.45788   17.41085
      H1    -2.11481   -9.30772   17.93960
       H    -5.56255  -11.51737   15.40054
       O    -6.33783  -11.14308   14.98621
      H1    -6.99562  -11.07463   15.67613
       H    -4.92941  -14.70499   17.68099
       O    -5.18384  -14.53443   16.75027
      H1    -6.14033  -14.66818   16.50814
       H    -7.99560  -12.25733   17.46724
       O    -7.17046  -11.69810   17.67241
      H1    -6.52737  -12.27768   18.11005

