21
frame 2 | Written by MDAnalysis XYZWriter (release 2.4.3)
       H    15.99972    4.85757   18.47013
       O    15.36032    4.55382   17.83555
      H1    15.23358    5.31210   17.31712
       H    10.38635    6.35434   17.21737
       O     9.99078    7.17765   17.35469
      H1    10.57690    7.82919   16.99883
       H    13.37655    4.68183   17.93253
       O    12.44033    4.54280   17.84355
      H1    12.37443    3.83461   17.21675
       H    14.54731    1.98931   19.22432
       O    15.10733    1.53179   19.83568
      H1    14.95374    0.62944   19.58686
       H    10.06077    1.49125   17.32919
       O    10.77998    1.41535   16.67391
      H1    11.34210    0.67389   16.96719
       H    15.11717    0.98297   16.16966
       O    14.41332    1.30684   15.57080
      H1    14.15916    0.52725   15.11199
       H    15.29765    7.27550   16.09007
       O    14.59328    6.78907   16.55067
      H1    14.14958    7.15986   17.28527

