21
frame 2 | Written by MDAnalysis XYZWriter (release 2.4.3)
       H    17.55299   10.92196   11.63185
       O    17.86193   10.82782   12.55378
      H1    18.53823   10.11433   12.60571
       H    16.73171   14.27785    8.77813
       O    16.79159   15.18353    9.08220
      H1    16.86604   15.09205   10.05959
       H    19.31133   13.93658   13.16766
       O    18.43962   13.61593   13.15807
      H1    18.44947   12.67609   12.88307
       H    19.46245   13.82063    8.93821
       O    19.63117   13.88793    7.97026
      H1    18.97798   14.39032    7.52118
       H    17.81005   10.23475    9.09671
       O    17.22556   10.92627    9.45761
      H1    16.45265   10.33706    9.68599
       H    17.20065   16.40275   11.67802
       O    17.14842   15.47566   11.64448
      H1    17.61447   15.15220   12.51390
       H    19.08514   12.23885   10.04243
       O    19.56923   12.93905   10.51333
      H1    19.04646   13.20348   11.28036

