21
frame 2 | Written by MDAnalysis XYZWriter (release 2.4.3)
       H    -9.69911   -9.84590  -12.59795
       O   -10.40251  -10.54965  -12.75523
      H1    -9.99062  -11.23145  -13.30175
       H    -7.73093  -12.09160  -14.00291
       O    -8.63866  -12.01440  -14.34525
      H1    -8.56498  -11.66340  -15.24688
       H   -13.12180  -11.73211  -13.46042
       O   -13.92335  -11.81452  -12.92397
      H1   -13.75336  -11.17887  -12.24951
       H   -11.57799   -8.18999  -10.63333
       O   -11.03531   -7.56357  -11.13311
      H1   -11.37223   -7.75397  -12.06794
       H    -7.54526   -9.24212  -12.50263
       O    -8.32883   -8.68618  -12.38371
      H1    -8.14112   -7.83900  -12.78360
       H   -11.23054  -10.82060  -10.94895
       O   -11.50110  -11.10718  -10.02901
      H1   -12.21971  -11.73982  -10.03754
       H   -10.75591   -9.32766  -14.86310
       O   -10.11171   -8.61265  -15.08645
      H1    -9.52443   -8.64694  -14.30446

