21
frame 2 | Written by MDAnalysis XYZWriter (release 2.4.3)
       H     3.83677   -7.88371    2.65676
       O     4.58531   -7.44216    2.23927
      H1     4.31611   -7.26130    1.31321
       H     4.76416   -6.69263    3.97783
       O     4.99777   -6.22173    4.74234
      H1     4.57401   -5.41921    4.75969
       H     6.45624   -6.52627    6.00206
       O     7.39746   -6.74684    6.16886
      H1     7.31028   -7.74068    6.04002
       H     1.84677   -5.66022    3.29601
       O     1.60240   -6.54804    3.60686
      H1     1.14219   -6.45481    4.43949
       H     6.00897   -5.56609    2.88484
       O     6.85504   -5.27892    2.51441
      H1     6.63997   -4.49764    1.91416
       H     3.75306   -3.57132    5.54255
       O     3.96259   -3.64844    4.59503
      H1     3.10042   -3.71534    4.11342
       H     3.40307   -7.36085    5.71293
       O     3.24962   -8.32759    5.71759
      H1     2.97009   -8.62234    4.83319

