21
frame 3 | Written by MDAnalysis XYZWriter (release 2.4.3)
       H     4.26126   13.36307   17.23200
       O     3.56179   13.09473   17.83976
      H1     3.75161   13.59008   18.66801
       H     4.25894   11.27863   17.86294
       O     4.61840   10.36072   17.85917
      H1     5.42461   10.45239   18.42080
       H     1.96879   14.20712   18.00698
       O     1.08727   14.52550   18.04469
      H1     1.14243   15.47862   18.15895
       H     0.00312   12.74226   17.91224
       O    -0.37453   11.87495   17.77509
      H1    -1.15616   11.84451   18.29121
       H    -0.48857   16.98363   17.08710
       O    -0.14997   16.93826   17.99021
      H1     0.16939   17.83310   18.08160
       H    -0.54814   12.87887   16.08335
       O    -0.34156   13.44787   15.30077
      H1    -0.69164   14.34611   15.40800
       H     2.11385   14.75425   14.62626
       O     2.47036   14.15385   15.26923
      H1     1.65408   13.71215   15.49390

