21
frame 3 | Written by MDAnalysis XYZWriter (release 2.4.3)
       H    -7.35112    6.19189   -8.77968
       O    -7.84261    6.35792   -7.98377
      H1    -8.76382    6.13446   -8.10239
       H    -7.67225    3.56653   -8.40458
       O    -6.77906    3.24915   -8.27498
      H1    -6.35163    3.76515   -7.63790
       H    -4.01464    0.79932  -10.01143
       O    -4.21584    1.73535  -10.32341
      H1    -5.17671    1.75106  -10.19050
       H    -5.04795    5.65463  -10.45099
       O    -5.95040    5.37398  -10.24589
      H1    -5.84882    4.43399  -10.11234
       H    -7.26601    5.99973  -11.31193
       O    -7.79760    6.62203  -11.78600
      H1    -7.75217    7.49821  -11.22938
       H    -3.08538    3.71777   -7.96785
       O    -3.38532    2.81341   -7.85793
      H1    -3.72301    2.53614   -8.72573
       H    -7.90474    2.71246  -10.86995
       O    -7.18769    2.35489  -11.37492
      H1    -7.18345    2.85996  -12.21245

