21
frame 3 | Written by MDAnalysis XYZWriter (release 2.4.3)
       H    11.98768   10.53509  -15.76994
       O    11.49501   11.38871  -15.85802
      H1    12.20035   11.98255  -15.47533
       H    13.17978    8.48004  -15.34886
       O    13.28550    9.26442  -15.88790
      H1    13.16382    8.99936  -16.78422
       H    17.80553   10.30588  -17.66590
       O    16.84432   10.55414  -17.72092
      H1    16.82290   11.49920  -18.04355
       H    14.80212   10.16498  -15.65076
       O    15.51667   10.78957  -15.45841
      H1    16.04590   10.76276  -16.30031
       H    14.30058   12.11310  -15.05363
       O    13.63565   12.72779  -14.86224
      H1    13.76901   12.85752  -13.91825
       H    13.93470    8.45656  -11.97027
       O    14.25352    8.83197  -12.81562
      H1    15.17546    9.10464  -12.76091
       H    17.05701   10.48863  -13.07066
       O    16.91900    9.58630  -13.42290
      H1    16.62387    9.80025  -14.30177

