21
frame 3 | Written by MDAnalysis XYZWriter (release 2.4.3)
       H    15.23015   -0.86809   13.54638
       O    15.57951   -1.42399   14.24698
      H1    14.88352   -1.53342   14.88011
       H    17.26224   -2.89958   17.62776
       O    16.35277   -2.59865   17.38811
      H1    15.71288   -3.27594   17.66040
       H    16.78872    0.29268   17.19342
       O    15.84172    0.13298   17.34399
      H1    15.79979   -0.81996   17.31684
       H    14.79432    2.71965   18.66943
       O    15.54316    2.28267   19.16942
      H1    15.39835    1.36564   18.94972
       H    19.37498    0.98256   18.27573
       O    18.46267    0.71829   18.23705
      H1    18.21670    0.45796   19.11716
       H    13.27868   -0.71261   18.78767
       O    12.57191   -0.26397   18.30430
      H1    11.74945   -0.73394   18.52692
       H    14.58154    1.43487   16.52024
       O    13.94610    2.14391   16.28097
      H1    13.41415    1.69253   15.57941

