21
frame 3 | Written by MDAnalysis XYZWriter (release 2.4.3)
       H    10.82637    8.07203   17.82074
       O    10.32303    8.12486   18.60153
      H1    10.49775    9.00491   18.86407
       H    11.60453    7.24771   15.24543
       O    10.88394    7.28303   15.87488
      H1    10.79866    6.37975   16.23800
       H    13.51860    7.70503   14.69655
       O    12.86183    8.14093   14.06031
      H1    12.74406    9.02112   14.49169
       H    12.70133   11.87494   19.40516
       O    13.16655   11.99715   18.56377
      H1    14.13416   11.99801   18.65965
       H    15.34895    7.02284   15.31036
       O    14.52713    7.07102   15.81413
      H1    14.54789    7.68399   16.53159
       H    15.78582   10.49478   18.66633
       O    15.91666    9.64195   19.14583
      H1    16.32624    9.80242   20.03676
       H    12.93390   10.22498   18.01355
       O    12.73780    9.25769   17.85390
      H1    12.96861    8.94724   18.71666

