21
frame 3 | Written by MDAnalysis XYZWriter (release 2.4.3)
       H   -12.94924   16.02784    0.03884
       O   -13.79803   15.67350   -0.34263
      H1   -14.23985   16.41689   -0.81170
       H   -15.16988   15.73133    0.89398
       O   -15.96402   15.62307    1.41441
      H1   -16.75422   15.75632    0.77466
       H   -13.34340   11.40011    0.50144
       O   -13.85531   10.83478    1.03614
      H1   -14.21390   10.19220    0.40672
       H   -14.89507   13.30791   -2.42898
       O   -14.12245   12.67219   -2.45809
      H1   -13.98178   12.51203   -1.51317
       H    -9.80955   12.77908   -0.45940
       O   -10.07834   13.69982   -0.44937
      H1    -9.70189   14.04498   -1.28691
       H   -11.37166   12.59150   -4.02886
       O   -11.58916   13.44730   -3.62156
      H1   -12.28238   13.30810   -2.97033
       H   -11.76524   13.43767   -0.17606
       O   -12.68209   13.15871   -0.04215
      H1   -13.16639   13.98777   -0.15965

