21
frame 3 | Written by MDAnalysis XYZWriter (release 2.4.3)
       H    -4.77158  -16.20827   15.37689
       O    -4.40737  -16.85629   14.76449
      H1    -4.24871  -16.23237   14.03160
       H    -1.18821  -16.53878   14.58425
       O    -1.63111  -17.32685   14.96213
      H1    -2.55496  -17.13923   15.02590
       H    -1.01664  -16.56131   18.46874
       O    -1.79499  -17.17333   18.18532
      H1    -1.77292  -17.41467   17.27166
       H    -1.11584  -14.48257   13.45267
       O    -0.86048  -15.25510   12.97263
      H1    -1.18958  -15.22643   12.06983
       H     2.45538  -15.06757   13.72033
       O     1.57419  -14.75087   13.94867
      H1     0.87071  -15.20394   13.37610
       H    -2.57305  -18.33378   13.29851
       O    -2.95898  -18.94708   12.69144
      H1    -2.66974  -19.84576   12.96729
       H     1.26275  -19.70486   14.61410
       O     0.90040  -19.36070   15.45420
      H1     0.21723  -18.75423   15.15045

