21
frame 3 | Written by MDAnalysis XYZWriter (release 2.4.3)
       H    14.64468    5.59038   18.56198
       O    14.28705    5.20368   17.77421
      H1    14.46916    5.87065   17.09874
       H    13.51860    7.70503   14.69655
       O    12.86183    8.14093   14.06031
      H1    12.74406    9.02112   14.49169
       H    18.25661    8.32184   17.49006
       O    17.40624    7.82986   17.69030
      H1    16.89988    8.50751   18.15374
       H    15.35276   10.97334   15.05321
       O    15.22447   10.11299   14.61217
      H1    14.65030   10.34094   13.87346
       H    16.37827    8.60184   14.33262
       O    16.89871    7.81758   14.07122
      H1    16.56424    7.53174   13.24214
       H    15.34895    7.02284   15.31036
       O    14.52713    7.07102   15.81413
      H1    14.54789    7.68399   16.53159
       H    12.93390   10.22498   18.01355
       O    12.73780    9.25769   17.85390
      H1    12.96861    8.94724   18.71666

