21
frame 3 | Written by MDAnalysis XYZWriter (release 2.4.3)
       H   -10.92461    5.51932   12.47656
       O   -11.83727    5.76561   12.68073
      H1   -11.88343    6.75770   12.66689
       H   -11.16815    8.00969   10.55023
       O   -11.49959    7.59950    9.70292
      H1   -12.46836    7.78471    9.76024
       H   -10.05008   11.16621   11.24976
       O   -10.34507   12.06726   11.54129
      H1   -10.57350   12.43925   10.66431
       H    -9.51906    8.11180   15.37530
       O    -9.25063    7.24464   15.78561
      H1   -10.03141    6.65850   15.67592
       H    -9.00744   10.10561   14.75239
       O    -9.89221    9.68760   14.78518
      H1   -10.38119   10.38592   15.30105
       H   -11.73138    9.25002   12.75294
       O   -11.22100    8.47993   12.41088
      H1   -10.34953    8.69334   12.68452
       H    -8.30648    9.66597   10.36320
       O    -9.27211    9.51990   10.50873
      H1    -9.49284    8.84705    9.89777

