21
frame 3 | Written by MDAnalysis XYZWriter (release 2.4.3)
       H   -17.11788   10.59780   -5.77139
       O   -17.27985   10.39019   -4.85066
      H1   -17.60776    9.46704   -4.76168
       H   -17.20892    7.27211   -3.95846
       O   -17.94759    7.78970   -3.63170
      H1   -17.70527    8.40086   -2.93810
       H   -14.27570   11.43363   -3.49530
       O   -14.51025   10.77725   -4.25030
      H1   -15.51313   10.79381   -4.21063
       H   -17.34511    6.45374   -6.27616
       O   -16.45368    6.36933   -5.85674
      H1   -15.94326    6.12631   -6.63594
       H   -16.34722   10.60101   -7.99752
       O   -16.60263   11.23417   -7.30835
      H1   -15.80251   11.55647   -6.96119
       H   -18.87817    7.50597   -7.44569
       O   -19.05033    6.56461   -7.13839
      H1   -19.58101    6.21628   -7.87173
       H   -18.59637   11.69894   -5.19312
       O   -19.38426   12.29480   -5.32504
      H1   -18.96694   13.01757   -5.85276

