21
frame 3 | Written by MDAnalysis XYZWriter (release 2.4.3)
       H     2.89133    2.23873  -10.13532
       O     3.86087    2.22435  -10.30966
      H1     4.29320    2.46532   -9.51942
       H     0.19667    1.89968   -8.39048
       O     0.89164    2.26307   -8.92830
      H1     0.76274    2.39003   -9.84605
       H     5.35899    3.61205   -7.04854
       O     4.71478    3.19278   -7.65565
      H1     4.22676    2.55015   -7.13816
       H     3.38433    0.10230   -4.37912
       O     2.48540    0.14865   -4.72247
      H1     1.97254   -0.64286   -4.47098
       H     2.57180    0.72796   -6.37657
       O     2.53339    0.60984   -7.36732
      H1     2.08056    1.34806   -7.80479
       H     4.67240   -1.63374   -6.85406
       O     4.23148   -1.55685   -7.70261
      H1     3.50418   -0.93831   -7.59844
       H    -1.12730    0.91539   -6.23088
       O    -1.08852    1.21025   -7.17442
      H1    -1.84528    1.69779   -7.38242

