21
frame 3 | Written by MDAnalysis XYZWriter (release 2.4.3)
       H   -18.34340  -12.36447  -10.94761
       O   -17.43351  -12.44681  -11.33197
      H1   -16.96893  -11.61014  -11.14768
       H   -13.87412  -12.04040  -12.31854
       O   -13.68836  -12.70470  -11.59112
      H1   -12.77026  -12.60667  -11.39713
       H   -17.51867  -14.93065  -12.89080
       O   -18.43324  -15.17724  -12.97921
      H1   -18.42596  -15.65194  -13.86035
       H   -15.23064  -13.98206  -12.18045
       O   -15.64386  -14.70501  -12.75940
      H1   -15.43181  -14.55538  -13.68561
       H   -14.39707  -17.60373  -13.50425
       O   -14.08590  -16.91063  -12.93159
      H1   -14.75241  -16.23293  -12.90051
       H   -15.07817  -14.41536   -9.67034
       O   -15.91298  -14.08263   -9.40855
      H1   -16.29297  -13.53381  -10.13996
       H   -13.02777  -15.26378  -10.19723
       O   -13.88063  -15.60930   -9.93188
      H1   -13.72923  -16.04591   -9.06335

