21
frame 3 | Written by MDAnalysis XYZWriter (release 2.4.3)
       H    -6.71377   -8.68536    9.62387
       O    -7.62567   -8.48487    9.83512
      H1    -8.08472   -9.28023   10.03426
       H   -10.45064  -10.42443   10.55515
       O    -9.66809  -10.33180    9.96879
      H1   -10.02985  -10.44018    9.07591
       H    -8.40030  -12.31673   10.66814
       O    -7.89599  -12.70903   11.35691
      H1    -7.11670  -12.21042   11.51843
       H   -12.72146  -10.11575   11.46318
       O   -11.93942  -10.48617   11.83196
      H1   -12.13920  -11.39479   11.86775
       H    -8.02886   -7.71974   11.41150
       O    -8.09747   -7.29268   12.30779
      H1    -9.03030   -7.17478   12.47750
       H   -11.62912  -13.45455   11.53552
       O   -12.19658  -13.14210   12.28263
      H1   -12.75450  -13.92851   12.43920
       H    -9.31392   -9.39621   12.62400
       O   -10.02162   -9.21770   13.24257
      H1   -10.78896   -9.53718   12.69541

