21
frame 3 | Written by MDAnalysis XYZWriter (release 2.4.3)
       H    -6.00234   -7.57290    3.36323
       O    -6.83300   -7.32277    2.89055
      H1    -6.89486   -7.96790    2.15376
       H    -8.52166   -8.07780    3.59043
       O    -9.14057   -8.30749    4.28301
      H1    -9.65031   -9.08530    4.05547
       H    -8.98718   -5.75184   -0.07602
       O    -8.79777   -4.94849    0.39621
      H1    -7.86603   -4.94802    0.54288
       H    -4.94839  -11.50264    1.29116
       O    -4.91443  -10.98462    2.11797
      H1    -5.08568  -11.69135    2.77499
       H    -8.09295   -8.20226   -0.81412
       O    -7.46923   -7.82582   -0.16082
      H1    -6.62766   -7.96353   -0.56822
       H    -4.55036   -9.21573    3.57063
       O    -4.51722   -8.41967    4.11300
      H1    -5.04353   -8.60652    4.87765
       H    -6.42176   -5.93369    1.90251
       O    -6.31898   -5.04671    1.46582
      H1    -5.71075   -5.17708    0.77377

