21
frame 0 | Written by MDAnalysis XYZWriter (release 2.4.3)
       H    14.90746   14.38283  -15.52256
       O    15.06611   14.54956  -14.59803
      H1    14.47438   13.87724  -14.19261
       H    16.83980   13.84476  -15.07907
       O    17.83095   13.68312  -15.03724
      H1    18.03352   13.15876  -14.29580
       H    16.97869   11.39754  -17.40933
       O    16.02556   11.42289  -17.62584
      H1    15.67457   12.35012  -17.61301
       H    14.15311   11.78602  -14.01724
       O    13.66491   12.47669  -13.54924
      H1    13.76561   12.21619  -12.67496
       H    14.65241   16.88208  -12.67362
       O    13.89503   16.36307  -13.10990
      H1    14.42360   15.75387  -13.64012
       H    15.15872   18.21401  -15.71723
       O    14.72323   17.86240  -16.49299
      H1    14.06565   17.28312  -16.10014
       H    14.69238   14.37639  -17.84823
       O    15.54753   14.09186  -17.48684
      H1    16.12453   14.41408  -18.16212

