21
frame 3 | Written by MDAnalysis XYZWriter (release 2.4.3)
       H     3.69392    5.40188   -5.47297
       O     4.20214    6.23435   -5.41021
      H1     3.92486    6.66356   -6.25459
       H     1.69704    5.56809  -10.12394
       O     0.96426    5.53777  -10.77063
      H1     1.25463    6.01745  -11.56847
       H     7.02379    6.17644   -7.52853
       O     6.91207    6.83008   -8.24154
      H1     6.01612    7.08607   -8.09046
       H     4.31099    9.35587   -7.86277
       O     4.15589   10.34047   -7.69436
      H1     3.19627   10.46327   -7.67245
       H     4.35485    7.90274   -9.27328
       O     4.27208    7.58315   -8.36009
      H1     3.87497    6.66852   -8.38575
       H     0.74748    9.56970   -7.84545
       O     1.52566    9.51237   -8.44175
      H1     2.06928    8.90778   -7.96559
       H     3.27888    4.48638   -7.74196
       O     2.85871    5.28154   -8.11320
      H1     1.91483    5.31993   -7.86479

