21
frame 4 | Written by MDAnalysis XYZWriter (release 2.4.3)
       H   -20.07891  -12.36657   13.99088
       O   -19.28180  -12.85010   13.67055
      H1   -19.18645  -13.53033   14.26604
       H   -17.07182   -8.46588   13.85343
       O   -16.95777   -8.88882   14.69449
      H1   -16.14485   -9.39178   14.61988
       H   -18.40055   -9.24691   15.93913
       O   -19.05103   -8.86998   16.56810
      H1   -19.50294   -9.65508   16.87434
       H   -16.45569   -7.36346   15.37833
       O   -16.36393   -6.39671   15.53971
      H1   -16.71520   -6.21882   16.37210
       H   -16.28767  -10.56865   17.84787
       O   -16.15897  -10.22677   18.77225
      H1   -16.08077   -9.22090   18.72809
       H   -16.30837  -12.60285   16.48316
       O   -16.97635  -11.93520   16.24916
      H1   -17.21526  -12.21153   15.35413
       H   -19.08377   -7.61864   17.66373
       O   -19.20553   -6.84225   18.19183
      H1   -20.14027   -6.58974   17.98078

