21
frame 5 | Written by MDAnalysis XYZWriter (release 2.4.3)
       H     6.21622   -1.64950   -3.42190
       O     5.79018   -2.27255   -4.01856
      H1     5.71965   -3.07067   -3.44767
       H     6.72574   -2.47790    1.00411
       O     6.82376   -3.10244    0.30066
      H1     7.22884   -2.65459   -0.46478
       H     5.11719   -5.14685   -2.97911
       O     5.83955   -4.55752   -2.74075
      H1     6.20809   -4.98637   -1.99845
       H     3.94123   -4.01262   -0.91457
       O     4.32103   -4.39463   -0.15299
      H1     5.08880   -3.83416   -0.03201
       H     6.04902   -7.15622   -4.27134
       O     5.40463   -7.59388   -3.69348
      H1     5.52721   -7.19659   -2.82175
       H     7.69121   -7.24739   -1.75983
       O     7.14447   -6.56401   -1.39288
      H1     6.52700   -6.91556   -0.72342
       H     7.53833   -5.47069   -5.47884
       O     7.87221   -5.98243   -4.76491
      H1     7.86031   -5.44125   -3.97441

