21
frame 4 | Written by MDAnalysis XYZWriter (release 2.4.3)
       H   -11.37717  -14.38339   14.35960
       O   -11.62698  -15.30521   14.08243
      H1   -12.53653  -15.22719   13.70097
       H   -12.28277  -10.21566   11.49087
       O   -11.47064  -10.67148   11.68399
      H1   -11.72482  -11.60015   11.96185
       H   -10.42685  -14.33964    9.15165
       O   -10.23547  -15.05693    9.75697
      H1   -10.77698  -15.80243    9.54289
       H   -11.44379  -12.29541   14.99886
       O   -10.71913  -12.80061   14.67742
      H1   -10.62662  -12.55444   13.78612
       H   -14.34487  -14.89149   12.45555
       O   -14.14957  -14.37910   13.23936
      H1   -14.66038  -14.72549   14.00117
       H   -11.13282  -14.19832   11.32190
       O   -11.65154  -13.52719   11.76581
      H1   -12.43091  -14.05400   12.18646
       H   -12.35945  -13.07611    8.53723
       O   -11.46867  -13.30028    8.13436
      H1   -11.73074  -13.55767    7.23366

