21
frame 4 | Written by MDAnalysis XYZWriter (release 2.4.3)
       H    18.82181   -9.06952   -8.29295
       O    18.35567   -9.86140   -8.14001
      H1    17.67352   -9.63617   -7.47235
       H    19.17310   -7.17179  -11.91249
       O    19.27833   -6.18961  -11.75280
      H1    18.42034   -5.96234  -11.36480
       H    16.83377   -5.54476   -7.14458
       O    15.96340   -5.68831   -6.68851
      H1    15.46642   -4.91775   -7.08210
       H    18.75992   -4.16571   -7.58442
       O    18.51317   -5.09923   -7.60280
      H1    19.19677   -5.54763   -7.05888
       H    15.88708   -7.04713  -10.59149
       O    15.07408   -6.63547  -10.25803
      H1    14.46530   -7.32573  -10.04610
       H    18.09743   -6.33615   -8.51335
       O    18.09214   -6.97528   -9.21545
      H1    18.87428   -6.68901   -9.68096
       H    15.23471   -4.97441   -9.39767
       O    15.56204   -4.03956   -9.32624
      H1    15.04894   -3.58006  -10.03472

