21
frame 4 | Written by MDAnalysis XYZWriter (release 2.4.3)
       H   -13.22764    3.90038   12.37842
       O   -12.87646    3.19905   11.84101
      H1   -12.51764    2.60819   12.50772
       H   -10.83774    4.50111    7.21357
       O   -10.21718    3.77072    7.32444
      H1    -9.62641    4.14953    8.02942
       H    -8.87666    3.38258   10.84521
       O    -9.15925    2.77687   11.51592
      H1    -9.94388    2.25253   11.15959
       H    -8.92130    5.34892   12.66048
       O    -9.56363    6.04719   12.42714
      H1   -10.35081    5.56347   12.08431
       H   -13.47703    2.14867   10.30350
       O   -13.30581    1.49817    9.60132
      H1   -14.09957    0.93487    9.66453
       H   -11.61257    4.26795    9.04984
       O   -11.44916    4.53931    9.93210
      H1   -11.89414    3.95142   10.53806
       H   -14.50408    7.06279    8.63491
       O   -14.01251    6.33775    8.17281
      H1   -14.11018    5.55227    8.78060

