21
frame 4 | Written by MDAnalysis XYZWriter (release 2.4.3)
       H     7.56778  -17.82361   17.34288
       O     8.45373  -17.39977   17.44271
      H1     8.40881  -16.57096   16.91256
       H     9.59466  -13.40677   13.76427
       O     9.90621  -14.22117   14.20859
      H1     9.15769  -14.40356   14.79722
       H     4.89332  -15.14058   20.07395
       O     5.46364  -15.75927   19.54242
      H1     5.89026  -15.17803   18.83998
       H     7.20208  -15.11786   14.93615
       O     7.76741  -14.98708   15.74121
      H1     7.40543  -14.30482   16.31994
       H     5.22213  -17.22026   18.24685
       O     5.22322  -18.19401   17.99263
      H1     5.43276  -18.64939   18.82349
       H    10.20490  -17.68240   16.47757
       O    11.08230  -17.44882   16.09319
      H1    11.53467  -16.95262   16.77759
       H    10.80076  -18.50272   19.95907
       O     9.86797  -18.56668   19.80805
      H1     9.64615  -18.51626   18.84597

