21
frame 4 | Written by MDAnalysis XYZWriter (release 2.4.3)
       H    -6.70022  -10.24509  -10.81041
       O    -6.61860   -9.70696  -11.62568
      H1    -5.73273   -9.39809  -11.57051
       H    -3.67327   -9.45381  -12.45051
       O    -3.94194   -9.61034  -11.52844
      H1    -3.34068   -9.16043  -10.93746
       H    -3.78520   -8.57673  -14.33359
       O    -3.31750   -9.34574  -14.05252
      H1    -2.39671   -9.05116  -14.00504
       H    -4.39410   -5.89940   -9.38875
       O    -4.51258   -6.75209   -8.97780
      H1    -4.04170   -7.32511   -9.54647
       H    -3.04448  -11.23580  -11.20802
       O    -2.55057  -12.03209  -11.48159
      H1    -2.84970  -12.77276  -10.91593
       H    -3.73464   -5.34183  -11.30344
       O    -3.28780   -6.17648  -11.49426
      H1    -3.47373   -6.16096  -12.47687
       H    -1.91177   -7.96528   -9.29657
       O    -2.52567   -8.73573   -9.30028
      H1    -2.05025   -9.50140   -8.93057

