21
frame 4 | Written by MDAnalysis XYZWriter (release 2.4.3)
       H    14.45096  -16.43041   14.16325
       O    13.72229  -16.37173   14.83694
      H1    12.92213  -16.52344   14.29382
       H    12.78644  -14.20670   15.48616
       O    11.98745  -13.86407   15.97850
      H1    11.30474  -13.94080   15.28241
       H    14.47991  -12.62518   17.38703
       O    14.39039  -11.66564   17.18927
      H1    14.63135  -11.08357   17.91174
       H    10.84871  -12.83552   19.06579
       O    11.63420  -13.31982   18.82717
      H1    11.58225  -13.29427   17.86509
       H    12.07400  -15.76164   18.50368
       O    12.63178  -15.93979   17.77726
      H1    12.43376  -15.18874   17.21277
       H    15.36700  -14.08505   18.80604
       O    14.84909  -14.14773   17.95806
      H1    14.25935  -14.93973   18.04160
       H    10.20490  -17.68240   16.47757
       O    11.08230  -17.44882   16.09319
      H1    11.53467  -16.95262   16.77759

