21
frame 5 | Written by MDAnalysis XYZWriter (release 2.4.3)
       H    -4.02124   -2.25652  -17.38991
       O    -3.64906   -2.80493  -16.62913
      H1    -4.26653   -2.55155  -15.99391
       H    -4.26818   -0.71048  -14.42464
       O    -4.95756   -1.41295  -14.56235
      H1    -5.36325   -1.63073  -13.66124
       H    -3.78108   -6.01343  -15.69472
       O    -4.46184   -5.36276  -15.42079
      H1    -4.09617   -4.60198  -15.91834
       H    -1.47818   -4.45959  -18.88475
       O    -2.18078   -3.80060  -19.04785
      H1    -2.34244   -3.27968  -18.25264
       H    -2.76470    0.16844  -16.52411
       O    -3.21070    0.58448  -15.72285
      H1    -2.48022    0.92011  -15.22630
       H    -0.62169   -0.86675  -17.28913
       O    -1.47246   -1.05434  -17.64698
      H1    -1.92094   -1.70372  -17.01822
       H    -7.77763   -3.08201  -15.43443
       O    -6.92701   -2.81789  -15.89289
      H1    -6.30797   -2.28711  -15.31289

