21
frame 4 | Written by MDAnalysis XYZWriter (release 2.4.3)
       H    13.07414   -5.04824    3.93908
       O    13.79696   -5.25087    4.67174
      H1    14.47967   -5.73427    4.20194
       H    10.70506   -3.88242    6.87364
       O    11.63366   -4.24009    6.79878
      H1    11.82313   -4.13621    5.86748
       H    13.54286   -9.09977    6.57406
       O    13.47611  -10.07841    6.70484
      H1    14.19882  -10.57485    6.29436
       H    16.56624   -6.82384    4.22974
       O    15.77911   -7.27309    4.61916
      H1    16.04093   -7.34720    5.51625
       H    11.70525   -7.53066    5.05852
       O    10.95615   -7.37042    4.45414
      H1    11.27677   -7.55062    3.55654
       H    12.55580   -7.09004    6.89687
       O    13.06287   -7.56683    6.26366
      H1    13.37281   -6.88570    5.63196
       H    11.36428   -5.64427    7.67749
       O    11.29491   -6.52003    8.16509
      H1    11.32519   -6.18517    9.11938

