21
frame 0 | Written by MDAnalysis XYZWriter (release 2.4.3)
       H    10.83288   -6.09510   -9.56802
       O    11.71462   -6.42003   -9.31604
      H1    11.67403   -7.11121   -8.62826
       H    14.42175   -6.58303  -12.73779
       O    14.65644   -5.83719  -13.25980
      H1    13.91407   -5.32582  -13.46189
       H    13.56973   -9.46219   -9.22252
       O    13.09262   -9.01739   -8.48372
      H1    13.82465   -8.69921   -7.88402
       H    15.56395   -6.51611   -8.78340
       O    15.38361   -5.77558   -8.20674
      H1    15.19569   -5.05755   -8.80215
       H    17.01189   -7.24925   -9.61022
       O    16.20007   -7.72506   -9.86602
      H1    16.48906   -8.62047  -10.03125
       H    12.77502   -8.53348  -12.36763
       O    12.39865   -8.96832  -13.15315
      H1    13.24732   -9.34747  -13.50183
       H    14.47422   -7.43519  -10.88812
       O    13.57105   -7.34827  -11.30328
      H1    12.91982   -7.01504  -10.58191

