21
frame 4 | Written by MDAnalysis XYZWriter (release 2.4.3)
       H    -2.69392   -5.79887   -6.59105
       O    -3.57908   -6.12105   -6.55430
      H1    -3.67383   -6.58006   -7.39289
       H    -0.15650   -6.66918  -10.81488
       O    -0.94958   -6.44404  -10.26762
      H1    -1.79686   -6.39940  -10.76052
       H    -7.26039   -8.21584  -10.29001
       O    -7.06604   -7.61868   -9.52630
      H1    -6.20174   -7.24209   -9.63080
       H    -4.39410   -5.89940   -9.38875
       O    -4.51258   -6.75209   -8.97780
      H1    -4.04170   -7.32511   -9.54647
       H    -3.73464   -5.34183  -11.30344
       O    -3.28780   -6.17648  -11.49426
      H1    -3.47373   -6.16096  -12.47687
       H    -1.91177   -7.96528   -9.29657
       O    -2.52567   -8.73573   -9.30028
      H1    -2.05025   -9.50140   -8.93057
       H    -4.81904   -4.85158   -6.74340
       O    -5.53766   -4.22645   -6.99398
      H1    -6.05530   -4.69818   -7.67574

