21
frame 4 | Written by MDAnalysis XYZWriter (release 2.4.3)
       H     6.54182   -5.99464  -13.05240
       O     7.22102   -6.64093  -12.78947
      H1     7.95940   -6.11485  -12.39425
       H     3.58269   -4.95043  -11.30791
       O     3.10382   -4.68182  -12.14645
      H1     2.17792   -5.08280  -12.08653
       H     5.90078   -4.46964  -10.19000
       O     4.96184   -4.82273  -10.10713
      H1     4.64386   -4.48451   -9.26184
       H     6.54675   -5.09420   -7.33439
       O     6.77475   -4.16056   -7.31379
      H1     5.92637   -3.67507   -7.20857
       H     7.04026   -3.60549   -8.91572
       O     7.27714   -3.51760   -9.84321
      H1     7.09891   -2.60637  -10.18380
       H     9.75930   -4.94803  -12.11491
       O     9.26612   -5.27686  -11.31765
      H1     8.86799   -4.49420  -10.95803
       H     5.15022   -6.66425  -10.12767
       O     5.02572   -7.63466  -10.03408
      H1     5.37113   -7.97727  -10.91909

