21
frame 4 | Written by MDAnalysis XYZWriter (release 2.4.3)
       H     6.43184   -8.19608  -12.51589
       O     6.10103   -9.01277  -12.24093
      H1     6.90208   -9.47939  -11.91278
       H    10.83076   -9.53974  -11.30469
       O    10.27676   -8.75563  -11.35652
      H1    10.90959   -8.09001  -11.75125
       H     6.77957  -13.51183  -12.15187
       O     5.98438  -13.15903  -12.59432
      H1     6.17927  -12.22555  -12.49371
       H     8.57345  -10.34426  -13.47489
       O     9.00611  -10.05890  -14.30945
      H1     8.36710  -10.05811  -14.96753
       H    11.31117  -11.59959  -10.62967
       O    11.79503  -11.13857  -11.31548
      H1    11.86745  -11.83968  -12.00660
       H     9.22897  -13.46315  -12.41221
       O     8.62074  -13.35641  -11.67105
      H1     9.12252  -13.73136  -10.91116
       H     8.93732  -10.13732  -11.70079
       O     8.26018  -10.75794  -11.96413
      H1     8.52651  -11.64789  -11.74583

