21
frame 4 | Written by MDAnalysis XYZWriter (release 2.4.3)
       H   -12.63654    9.31830   -5.88212
       O   -13.02485    8.73222   -6.57626
      H1   -13.81206    9.12499   -6.94012
       H   -12.01605   11.96254   -4.44981
       O   -11.83913   12.87838   -4.13129
      H1   -12.14313   12.95331   -3.21196
       H   -10.83070   11.76459   -7.87292
       O   -10.57149   11.95484   -6.93224
      H1   -10.93736   12.88232   -6.90120
       H   -11.37048    8.16481   -7.41004
       O   -10.40270    8.26944   -7.23133
      H1   -10.35865    8.10715   -6.29938
       H   -11.14603   10.62767   -5.81541
       O   -11.49693   10.21093   -5.03935
      H1   -10.70626   10.02032   -4.45448
       H    -8.09599    9.45717   -3.89428
       O    -8.32690   10.14409   -4.52272
      H1    -7.82616    9.90082   -5.36492
       H   -12.85356    7.65651   -5.22489
       O   -12.68142    6.87877   -4.62924
      H1   -13.27057    6.85492   -3.84898

