21
frame 4 | Written by MDAnalysis XYZWriter (release 2.4.3)
       H    16.97818   14.82564   -4.98903
       O    16.54029   15.58344   -5.44213
      H1    16.05004   15.07757   -6.05945
       H    18.24300   15.91936   -3.92316
       O    19.06813   16.25763   -3.51436
      H1    18.75819   17.07565   -3.10466
       H    16.37122   10.45767   -3.19374
       O    17.13833   10.14739   -2.66128
      H1    16.66035    9.90430   -1.88640
       H    18.98338   11.89046   -7.15600
       O    18.69044   11.18335   -7.80824
      H1    17.92819   10.79391   -7.31930
       H    18.18873   12.95207   -4.34580
       O    17.35788   13.37185   -4.16623
      H1    17.12248   13.51440   -3.26158
       H    14.69539   13.06505   -5.49405
       O    14.47285   13.63872   -6.24029
      H1    14.84857   13.22138   -7.02657
       H    15.92413   12.56021   -2.36803
       O    16.24481   13.18553   -1.64150
      H1    16.34540   12.53333   -0.89651

