21
frame 5 | Written by MDAnalysis XYZWriter (release 2.4.3)
       H    -0.11472  -12.82832    6.48935
       O    -0.11662  -11.92087    6.84759
      H1     0.77781  -11.64056    6.83682
       H     2.09469  -11.04566    3.85937
       O     2.51841  -10.51517    3.19848
      H1     1.82181  -10.13326    2.68601
       H    -0.13409   -9.56747    5.18069
       O    -0.06872   -9.33314    4.22488
      H1     0.54257   -8.58082    4.27061
       H     2.69479  -11.49086    6.04816
       O     2.60227  -11.08102    6.88915
      H1     2.91218  -10.18647    6.76119
       H     3.55086   -9.78248    4.28664
       O     4.09443   -9.20359    4.88172
      H1     4.97334   -9.56605    4.96257
       H    -0.37188  -11.16146    3.34620
       O    -0.22041  -11.89415    2.75747
      H1    -0.82233  -11.66295    2.01246
       H     4.03920  -12.55392    5.09353
       O     3.09028  -12.79467    4.91876
      H1     3.02066  -13.03766    3.99077

