21
frame 5 | Written by MDAnalysis XYZWriter (release 2.4.3)
       H     6.14507   19.73750   -5.29073
       O     6.68773   19.22197   -4.69427
      H1     6.30905   18.33289   -4.76194
       H     3.62544   18.41648   -4.60195
       O     3.18833   18.68738   -3.77534
      H1     2.52729   19.35949   -3.99138
       H     0.45981   17.13585   -6.08121
       O     0.74049   17.19916   -5.15759
      H1     1.31118   17.98646   -5.03721
       H     3.23841   16.99925   -3.39065
       O     3.29072   16.03726   -3.20091
      H1     4.14846   15.93577   -2.73530
       H     5.85400   17.95870   -1.91746
       O     5.21426   18.71437   -1.75941
      H1     4.75510   18.92338   -2.58640
       H     4.02804   17.53695   -6.30964
       O     4.59449   17.36630   -5.59716
      H1     4.23613   16.54362   -5.21207
       H     1.94081   18.54468   -7.67133
       O     2.90499   18.38434   -7.43963
      H1     3.24962   19.32336   -7.47952

