21
frame 6 | Written by MDAnalysis XYZWriter (release 2.4.3)
       H     0.04837   -1.93936    2.96341
       O     0.72364   -2.35934    3.51886
      H1     0.76205   -1.94499    4.36619
       H    -2.82481    1.98396    4.38058
       O    -3.80160    1.91901    4.29817
      H1    -3.83460    1.24076    3.57998
       H    -1.46184    3.75222    3.63359
       O    -1.67823    4.67216    3.59856
      H1    -2.34074    4.89675    4.27876
       H     0.66999   -0.81547    6.40137
       O    -0.18686   -1.02182    6.04059
      H1    -0.43598   -0.28703    5.47538
       H    -0.67736    3.78390    6.90517
       O     0.03053    3.44969    6.36691
      H1     0.18629    4.15963    5.76337
       H    -0.32892    2.03129    4.88780
       O    -0.72466    1.50994    4.14896
      H1    -0.19962    1.58029    3.33938
       H     1.21367    1.64155    1.13948
       O     1.08390    1.31173    2.05366
      H1     1.61224    0.54850    2.13489

