21
frame 5 | Written by MDAnalysis XYZWriter (release 2.4.3)
       H   -13.91384   16.04524   -1.14577
       O   -14.56516   15.30040   -1.16608
      H1   -14.97261   15.25511   -2.06023
       H   -13.55639   12.20860    0.87921
       O   -14.03830   11.49906    1.32673
      H1   -14.08375   10.67136    0.85007
       H   -15.25423   12.40659   -1.59364
       O   -14.35943   12.14689   -1.86061
      H1   -13.80567   12.44899   -1.09420
       H    -9.21077   12.54795   -0.20702
       O    -9.31507   13.50655   -0.42238
      H1    -9.13972   13.60214   -1.38546
       H   -11.85004   12.18482   -3.35228
       O   -12.13836   13.05381   -3.15377
      H1   -12.97821   12.83264   -2.78089
       H   -11.80049   13.56727   -0.22232
       O   -12.72153   13.45550    0.01012
      H1   -13.29477   14.08185   -0.44268
       H   -10.04078   14.89756    0.06320
       O   -10.33349   15.70417    0.46654
      H1    -9.49915   16.21743    0.54678

