21
frame 5 | Written by MDAnalysis XYZWriter (release 2.4.3)
       H    -6.33095   12.76859   15.44037
       O    -6.92700   12.68583   16.18605
      H1    -7.18391   13.56089   16.44377
       H    -9.62246   14.39661   14.47649
       O   -10.22284   13.99631   13.83960
      H1   -10.13585   13.11246   14.13231
       H   -11.04433   18.34468   17.92327
       O   -11.61466   17.61217   17.52399
      H1   -10.99600   17.26333   16.81561
       H    -8.32642   14.80805   12.81460
       O    -7.39219   14.70621   12.79563
      H1    -7.32052   14.24624   13.67680
       H    -8.83029   15.75531   15.72458
       O    -8.70947   14.77550   15.84901
      H1    -8.93149   14.61078   16.77392
       H    -8.90458   17.65869   15.99308
       O    -9.68989   17.22216   15.53668
      H1    -9.76788   17.67275   14.66566
       H    -6.73368   17.18656   16.48804
       O    -7.31756   17.79932   16.96061
      H1    -6.73847   18.48735   17.23348

