21
frame 5 | Written by MDAnalysis XYZWriter (release 2.4.3)
       H    14.31498   14.42541   17.30262
       O    15.26239   14.86262   17.25013
      H1    15.17026   15.56686   17.88248
       H    14.64727   11.26649   14.91755
       O    14.14585   10.42211   14.98989
      H1    13.59734   10.32020   14.20392
       H    18.19314   14.57066   15.27017
       O    18.01049   15.07742   16.12424
      H1    17.14106   14.77366   16.44038
       H    15.21882   15.09874   13.14329
       O    14.42358   14.94634   13.66984
      H1    14.02160   14.09439   13.38083
       H    17.44802   12.05601   17.25372
       O    16.85659   11.28818   17.17402
      H1    16.37686   11.46203   16.34937
       H    14.09250   16.21269   14.88979
       O    13.89723   17.09172   15.27488
      H1    13.90732   16.92167   16.24068
       H    16.76517   13.14893   14.30630
       O    15.93394   12.91724   14.72997
      H1    15.46360   13.70951   14.95813

