21
frame 6 | Written by MDAnalysis XYZWriter (release 2.4.3)
       H   -17.20036   11.53995   -9.45491
       O   -17.26918   10.68375   -8.93050
      H1   -18.21051   10.61681   -8.71686
       H   -15.45996    8.21358   -9.45120
       O   -15.21443    8.46543  -10.34531
      H1   -14.87140    9.37673  -10.27322
       H   -17.69138   11.49643  -12.93919
       O   -17.98739   10.63107  -13.22355
      H1   -17.92064   10.12295  -12.36499
       H   -17.06516    6.35957  -10.98480
       O   -17.24050    6.13876  -10.08311
      H1   -18.16511    5.90495   -9.90585
       H   -18.00109    9.58921  -10.08267
       O   -18.63490    9.28433  -10.85156
      H1   -18.63726    8.31713  -10.74781
       H   -19.46050    8.43679   -8.75587
       O   -19.30676    7.48896   -8.61478
      H1   -19.58308    6.98693   -9.43504
       H   -14.81305    9.66837   -7.08567
       O   -15.17220   10.48374   -6.74926
      H1   -15.81498   10.69016   -7.45897

