21
frame 5 | Written by MDAnalysis XYZWriter (release 2.4.3)
       H   -17.38038   11.60585   -9.86283
       O   -17.01373   10.94073   -9.27734
      H1   -17.59121   10.96676   -8.47181
       H   -17.48620   12.08358  -13.39739
       O   -17.80025   11.24488  -13.71410
      H1   -17.77539   10.66914  -12.93799
       H   -18.48359   13.24813  -10.77542
       O   -17.52887   13.22273  -10.84651
      H1   -17.24675   13.73531  -10.10439
       H   -15.13756   10.53503  -14.97504
       O   -15.67062    9.82053  -14.49539
      H1   -16.40915   10.33338  -14.14496
       H   -17.08571    9.72139  -11.04187
       O   -17.85393    9.52944  -11.60553
      H1   -18.65456    9.65074  -10.99153
       H   -14.06250    8.82914  -11.82499
       O   -14.50964    8.45926  -12.56926
      H1   -14.90157    9.19116  -13.08804
       H   -19.01942    7.15569  -13.43846
       O   -18.18467    7.57853  -13.61333
      H1   -18.02866    8.22762  -12.90842

