21
frame 5 | Written by MDAnalysis XYZWriter (release 2.4.3)
       H    17.24414    5.81066    5.49385
       O    18.03406    5.52184    5.05088
      H1    18.77800    6.01546    5.35032
       H    14.71345    2.86840    7.78981
       O    15.20662    3.57373    7.33679
      H1    14.78026    4.39920    7.58417
       H    12.16955    7.47125    6.73905
       O    12.53982    8.21027    6.25265
      H1    11.75276    8.76617    6.04985
       H    16.94097    8.98479    4.34926
       O    16.45834    8.89578    5.19396
      H1    16.34642    7.97558    5.42414
       H    15.33395    6.61589    6.70534
       O    15.76459    6.54517    5.87348
      H1    15.06981    6.63211    5.23071
       H    13.49379    6.82883    3.08283
       O    13.43419    6.58535    4.00682
      H1    12.91127    7.28789    4.43406
       H    13.23001    6.07396    8.27230
       O    14.21217    6.03289    8.20104
      H1    14.55311    6.10527    9.08301

