21
frame 5 | Written by MDAnalysis XYZWriter (release 2.4.3)
       H   -11.36727    1.50388    2.41088
       O   -11.57579    1.94237    1.53606
      H1   -11.06571    1.36179    0.94245
       H   -11.13807    0.39392   -1.64247
       O   -11.79894    0.37427   -2.35475
      H1   -11.71230    1.18520   -2.86564
       H   -14.19219    1.50475   -0.32629
       O   -13.93294    2.17175    0.35058
      H1   -13.13857    1.79324    0.72314
       H   -12.70528    2.46108   -4.47372
       O   -11.88075    2.53842   -4.05765
      H1   -12.05625    3.29434   -3.41937
       H   -13.54382    0.17711   -1.63023
       O   -14.46064   -0.01289   -1.38732
      H1   -14.96228    0.35526   -2.18738
       H   -12.49630   -1.05898   -3.10019
       O   -12.93096   -1.77138   -3.59409
      H1   -12.71507   -2.53211   -3.13195
       H    -9.39045   -0.35357   -0.03748
       O    -9.97770    0.38546   -0.12900
      H1    -9.40063    1.16175   -0.06179

