21
frame 6 | Written by MDAnalysis XYZWriter (release 2.4.3)
       H   -15.45996    8.21358   -9.45120
       O   -15.21443    8.46543  -10.34531
      H1   -14.87140    9.37673  -10.27322
       H   -15.22503    6.83860   -7.20990
       O   -15.90016    7.34182   -7.71883
      H1   -16.33120    6.75489   -8.33839
       H   -13.16783    6.64407   -5.70893
       O   -13.64798    6.40029   -6.50403
      H1   -13.23770    6.71108   -7.33923
       H   -18.53765    7.93058   -6.68651
       O   -17.94554    8.12711   -5.96094
      H1   -17.06406    8.04717   -6.34677
       H   -17.06516    6.35957  -10.98480
       O   -17.24050    6.13876  -10.08311
      H1   -18.16511    5.90495   -9.90585
       H   -17.82659    6.42845   -5.10873
       O   -17.56602    5.60344   -4.60806
      H1   -18.25932    4.97648   -4.79935
       H   -14.81305    9.66837   -7.08567
       O   -15.17220   10.48374   -6.74926
      H1   -15.81498   10.69016   -7.45897

