21
frame 5 | Written by MDAnalysis XYZWriter (release 2.4.3)
       H   -16.96052    5.88079   18.35990
       O   -16.05142    5.72696   18.19709
      H1   -15.56941    6.38822   18.71462
       H   -19.39635    5.89876   15.48016
       O   -18.82734    5.24254   15.92003
      H1   -18.56137    4.53759   15.37497
       H   -16.69153    6.86659   16.21778
       O   -16.26384    7.45497   15.57583
      H1   -16.16442    6.95554   14.76038
       H   -15.43504   10.67991   14.53826
       O   -14.96044    9.87008   14.50689
      H1   -15.49480    9.23024   14.95812
       H   -17.58565    8.84343   15.21653
       O   -17.72178    9.81582   15.05966
      H1   -18.29958   10.13900   15.78739
       H   -14.27276    6.94084   16.05291
       O   -13.50192    6.94410   16.61820
      H1   -13.16893    6.02379   16.57598
       H   -15.82003    4.80180   16.47907
       O   -15.56045    4.23647   15.74590
      H1   -16.32208    3.98702   15.18589

