21
frame 6 | Written by MDAnalysis XYZWriter (release 2.4.3)
       H    -9.35682   -4.74452  -16.70148
       O    -9.51757   -5.39804  -17.38860
      H1    -9.56294   -5.05704  -18.28590
       H   -11.49306   -7.51473  -16.46283
       O   -11.60679   -6.63108  -16.14927
      H1   -10.89327   -6.07512  -16.54408
       H   -11.53005   -5.00864  -13.27712
       O   -10.62994   -4.96869  -12.85394
      H1   -10.42622   -5.90276  -12.68534
       H   -10.23139   -3.05948  -15.86372
       O    -9.63859   -3.58489  -15.36771
      H1   -10.03054   -3.70120  -14.49641
       H   -11.11012   -1.75454  -17.97777
       O   -11.26354   -2.06965  -17.07969
      H1   -12.07309   -2.56386  -17.06511
       H    -8.83523   -3.98877  -12.34533
       O    -7.85714   -3.99084  -12.32085
      H1    -7.54968   -4.39108  -13.13646
       H    -8.05054   -2.87621  -15.73606
       O    -7.14923   -2.78862  -16.26846
      H1    -6.65361   -2.13553  -15.79233

