21
frame 0 | Written by MDAnalysis XYZWriter (release 2.4.3)
       H    16.66686    6.72114    5.07545
       O    17.41722    6.20607    5.11377
      H1    18.25174    6.73900    4.98264
       H    14.28369    3.75962    2.27009
       O    15.05959    3.72392    1.69567
      H1    15.36522    2.82312    1.61088
       H    16.31195    0.75159    1.70037
       O    16.64578    1.40760    1.15706
      H1    17.59076    1.27360    1.08144
       H    18.92821    1.88717    5.02889
       O    18.96033    2.14207    4.10282
      H1    18.30747    2.82956    3.98165
       H    16.61834    3.90767    2.79781
       O    17.47312    4.18624    3.20663
      H1    17.28017    4.97970    3.75886
       H    15.50937    5.10935   -1.67459
       O    14.83896    4.93114   -0.99368
      H1    15.17927    4.31758   -0.28804
       H    17.42397    5.46230    1.11378
       O    17.89748    6.09797    0.55559
      H1    18.20377    5.56234   -0.25057

