21
frame 5 | Written by MDAnalysis XYZWriter (release 2.4.3)
       H   -16.04002   13.53170   11.64581
       O   -15.95402   12.61529   11.35846
      H1   -16.19391   12.64215   10.44383
       H   -18.93403   11.09601    6.30202
       O   -19.34413   11.15127    7.19824
      H1   -19.15036   11.99227    7.61274
       H   -17.12951    9.63415    8.90974
       O   -17.62581    9.31418    8.15547
      H1   -17.92853   10.13924    7.75520
       H   -19.03289   13.81892    9.20306
       O   -18.84320   13.60996    8.25266
      H1   -19.18307   14.27926    7.68678
       H   -16.27827   13.67275    5.79307
       O   -15.42151   13.48407    6.19975
      H1   -15.28527   12.56502    6.02908
       H   -16.27986   14.58725    9.08835
       O   -16.27502   15.49575    9.34717
      H1   -15.94379   15.63497   10.26095
       H   -17.26655   13.27925    8.49698
       O   -16.39802   12.87757    8.61154
      H1   -15.97451   13.17714    7.74728

