21
frame 6 | Written by MDAnalysis XYZWriter (release 2.4.3)
       H   -19.73713    6.25260    0.67362
       O   -19.24094    5.89014    1.42797
      H1   -18.30695    5.95437    1.23913
       H   -18.54174    6.92558    3.10579
       O   -18.65724    7.72632    3.63973
      H1   -17.75413    7.92867    3.99160
       H   -14.58578    5.00105    2.49240
       O   -15.39388    4.49798    2.63440
      H1   -15.27154    3.89762    1.89258
       H   -12.31552    5.25856    3.08722
       O   -12.95737    5.65469    2.47425
      H1   -12.58238    5.26437    1.67657
       H   -19.29534    3.73171    1.87014
       O   -19.00747    2.97042    2.34001
      H1   -18.16013    3.23411    2.73117
       H   -14.11156    7.32996    2.31255
       O   -14.85489    7.90983    2.32857
      H1   -15.45506    7.62589    1.59318
       H   -16.05411    5.65529    1.28162
       O   -16.66290    6.28409    0.88988
      H1   -16.62376    6.13737   -0.07197

