21
frame 6 | Written by MDAnalysis XYZWriter (release 2.4.3)
       H   -11.07578   16.21044   12.06795
       O   -10.78198   15.44376   11.51448
      H1   -11.52243   14.80068   11.67708
       H   -13.23619   16.89827    9.86363
       O   -13.98882   17.39742   10.24884
      H1   -13.92451   17.20093   11.22558
       H   -15.62144   18.33985   16.53634
       O   -15.28507   17.82367   15.78838
      H1   -14.36209   17.87933   15.91811
       H   -13.15019   13.97809   13.84189
       O   -13.60898   14.84691   13.94212
      H1   -13.79831   14.79674   14.90270
       H   -12.84973   16.43579   13.38235
       O   -12.79127   17.31735   12.99325
      H1   -12.89899   18.00599   13.63989
       H    -9.63118   18.76338   12.18616
       O    -9.65816   18.89345   13.19052
      H1   -10.53303   19.26393   13.52337
       H   -14.64363   14.78574   12.26883
       O   -15.26743   15.11918   11.62995
      H1   -15.95913   15.50977   12.23060

