21
frame 0 | Written by MDAnalysis XYZWriter (release 2.4.3)
       H     3.12329   15.75427  -16.27078
       O     3.76913   16.07685  -16.94103
      H1     3.51340   17.03185  -17.17650
       H    -1.30615   18.56027  -16.60483
       O    -1.89742   18.02582  -17.15252
      H1    -1.48338   17.13611  -16.91621
       H     1.68451   15.07620  -18.76227
       O     2.40301   15.40542  -19.22348
      H1     3.04069   15.92151  -18.69121
       H    -0.95405   13.84932  -19.02371
       O    -0.35963   14.30993  -18.37988
      H1    -0.99450   14.86667  -17.84926
       H     1.93477   18.71361  -17.56364
       O     2.66977   18.50223  -16.95849
      H1     3.31792   19.16745  -17.31877
       H    -2.47686   15.22447  -16.90246
       O    -1.76289   15.38464  -16.25671
      H1    -2.11307   15.77487  -15.46348
       H     0.54344   17.52892  -19.86213
       O     0.57729   18.07437  -19.03756
      H1    -0.30214   18.22289  -18.73730

