21
frame 0 | Written by MDAnalysis XYZWriter (release 2.4.3)
       H    -7.64857   -9.06462    9.17356
       O    -8.63460   -8.96743    9.26155
      H1    -8.89016   -9.86621    9.36881
       H    -6.80873   -6.78044   11.35909
       O    -6.35876   -6.06508   10.92118
      H1    -6.01321   -6.51679   10.13806
       H    -5.24659  -10.19080    7.17995
       O    -4.98513  -10.47687    6.28647
      H1    -5.47140  -11.34726    6.26180
       H    -3.91283   -6.72848    7.48408
       O    -3.75443   -7.35148    8.15057
      H1    -3.28274   -8.05764    7.76543
       H    -3.79828   -8.31339   12.43515
       O    -3.89011   -8.06078   11.49692
      H1    -3.08596   -7.76174   11.21724
       H    -3.29071  -10.23072    6.66393
       O    -2.39556   -9.97522    6.94915
      H1    -2.25943  -10.55905    7.71132
       H    -4.86558   -8.63499    8.73018
       O    -5.62724   -9.23744    8.71257
      H1    -5.29484  -10.09190    9.05681

