21
frame 6 | Written by MDAnalysis XYZWriter (release 2.4.3)
       H    17.83692  -16.64384   -8.15387
       O    18.53436  -16.09059   -8.53657
      H1    19.01259  -16.70634   -9.09666
       H    15.57151  -16.15074   -6.44673
       O    15.88858  -16.87205   -5.89502
      H1    16.04392  -17.59439   -6.53311
       H    12.80667  -20.09658   -8.33293
       O    13.38415  -19.61034   -8.94285
      H1    12.87528  -18.75300   -9.01062
       H    13.82326  -19.60436  -10.73475
       O    14.15123  -19.43819  -11.61236
      H1    13.41918  -19.37714  -12.21055
       H    13.37719  -16.79098   -8.73444
       O    12.49809  -17.13869   -8.94904
      H1    11.98297  -16.88640   -8.21228
       H    15.33576  -16.65623   -9.98206
       O    15.11348  -16.89996   -9.07566
      H1    15.43030  -17.80659   -8.96907
       H    16.54707  -19.66031   -7.82738
       O    15.81016  -19.05545   -7.62895
      H1    15.11107  -19.56461   -7.16488

