21
frame 6 | Written by MDAnalysis XYZWriter (release 2.4.3)
       H   -16.71293    7.18434   10.17900
       O   -16.19561    7.52403   10.95603
      H1   -16.89826    7.70294   11.56560
       H   -15.44298    8.84627    9.80637
       O   -15.28240    9.58244    9.19310
      H1   -15.01792   10.28079    9.81184
       H   -16.75838    9.63660    8.11211
       O   -17.59278    9.38222    7.71371
      H1   -17.86213   10.06071    7.04010
       H   -15.14134    6.90403   12.62594
       O   -15.43652    6.37759   13.40216
      H1   -14.75417    5.73310   13.58267
       H   -19.47838    7.64159   11.66841
       O   -19.13824    8.41017   12.16435
      H1   -19.47871    8.35698   13.02336
       H   -17.42761    7.46478    7.91438
       O   -17.52600    6.66194    8.48182
      H1   -18.49533    6.54006    8.29224
       H   -13.77360    6.32967    9.56812
       O   -13.66415    5.87734    8.76860
      H1   -13.80073    4.92589    8.96114

