21
frame 7 | Written by MDAnalysis XYZWriter (release 2.4.3)
       H    -3.62210   14.28865  -15.46080
       O    -2.93765   14.92623  -15.57025
      H1    -3.31108   15.45976  -16.28476
       H    -1.92407   17.45934  -17.39822
       O    -1.05256   17.42557  -16.98209
      H1    -0.80032   16.48525  -17.00983
       H    -1.78651   13.49010  -13.80109
       O    -1.56551   13.87423  -12.93833
      H1    -0.68343   14.37928  -13.04164
       H     0.48900   11.77213  -19.30473
       O     0.78307   12.51767  -18.75790
      H1     0.08847   12.76438  -18.19959
       H     0.12217   14.23268  -16.34278
       O    -0.59127   14.63764  -16.90738
      H1    -1.38451   14.69433  -16.33266
       H     1.84466   12.51662  -15.09781
       O     0.95839   12.91313  -14.96182
      H1     0.45782   12.07884  -14.98822
       H     2.28033   12.83990  -18.23253
       O     3.19372   12.90907  -17.89307
      H1     3.74071   12.28318  -18.32903

