21
frame 6 | Written by MDAnalysis XYZWriter (release 2.4.3)
       H   -18.08159  -15.77074    6.36251
       O   -18.72214  -15.04666    6.62857
      H1   -19.52212  -15.12914    6.05795
       H   -15.28119  -13.98292    9.18823
       O   -15.96993  -14.69908    9.17522
      H1   -15.95632  -15.19795   10.00511
       H   -13.37835  -18.52579    7.63576
       O   -13.98363  -17.92633    8.11808
      H1   -14.66224  -18.53143    8.49668
       H   -17.40715  -13.22724    9.28753
       O   -17.98630  -12.48765    9.11647
      H1   -17.98658  -11.90234    9.87803
       H   -14.56343  -16.58198    7.32955
       O   -15.06958  -15.83921    6.94292
      H1   -15.58720  -15.53131    7.72689
       H   -17.76638  -17.49805    6.16831
       O   -17.22997  -16.83483    5.69982
      H1   -16.37038  -16.69463    6.05129
       H   -14.06554  -13.43091    5.35829
       O   -13.46054  -14.13845    5.65825
      H1   -14.10050  -14.67179    6.20907

