21
frame 6 | Written by MDAnalysis XYZWriter (release 2.4.3)
       H   -12.77792    0.87265   11.60817
       O   -12.61554    0.37096   10.74871
      H1   -13.17354   -0.37785   10.83660
       H   -10.46237    2.14741    7.56914
       O   -10.47995    1.25077    7.17579
      H1   -11.12313    0.71947    7.67173
       H   -13.26418   -0.51001    8.68799
       O   -12.54731   -0.48147    7.99107
      H1   -12.24386   -1.38830    7.86388
       H   -11.39864    3.79453    9.96633
       O   -10.84599    3.40881   10.63508
      H1   -11.38251    2.95346   11.25928
       H    -9.31342   -2.42870   10.65250
       O   -10.11826   -2.17393   11.14472
      H1   -10.19628   -1.22782   10.93500
       H   -10.82233    0.21367   10.22733
       O    -9.91444    0.30783   10.01959
      H1    -9.60714    1.01873   10.57869
       H   -11.22473   -2.80834    9.55987
       O   -11.76115   -3.34740    8.97162
      H1   -11.22057   -3.34722    8.13445

