21
frame 7 | Written by MDAnalysis XYZWriter (release 2.4.3)
       H   -13.22249   19.21636  -17.76464
       O   -12.47193   18.90499  -18.26025
      H1   -11.79632   19.54218  -18.00127
       H    -4.29715   17.20025  -17.97729
       O    -4.14042   16.29248  -17.60221
      H1    -4.31273   15.62529  -18.32998
       H    -7.25774   18.71429  -19.51664
       O    -7.33846   19.47144  -18.92692
      H1    -7.44190   20.28165  -19.50492
       H    -5.84375   16.95057  -16.93080
       O    -6.66641   17.29411  -16.56314
      H1    -7.17043   17.55017  -17.31661
       H    -3.41168   19.42176  -18.76165
       O    -3.60515   18.50645  -19.11875
      H1    -2.86405   18.20048  -19.67305
       H   -10.09330   18.39763  -14.82101
       O    -9.19922   18.70303  -15.11787
      H1    -9.12909   19.58592  -14.73365
       H    -9.83168   19.30120  -16.54713
       O    -9.89899   19.65096  -17.46462
      H1    -9.02051   19.40086  -17.80554

