21
frame 6 | Written by MDAnalysis XYZWriter (release 2.4.3)
       H    -2.26226   -9.35146   12.10893
       O    -1.41832   -9.70353   11.69063
      H1    -1.18829   -9.37189   10.81418
       H    -2.92193  -10.95463   14.27760
       O    -2.71949  -11.12292   15.22037
      H1    -1.94576  -11.70774   15.16321
       H    -5.18872  -12.02357   17.12778
       O    -4.76995  -11.12643   17.06965
      H1    -4.07025  -11.22971   16.38895
       H    -3.84353  -11.31521   11.73536
       O    -3.28760  -11.81023   12.37176
      H1    -3.08256  -12.68416   11.97033
       H    -0.84193  -10.53104   13.08581
       O    -0.30031  -11.24372   13.43409
      H1     0.01134  -10.92348   14.29096
       H    -5.25354  -11.04546   13.61561
       O    -5.52401  -10.14721   13.74051
      H1    -5.83718  -10.10115   14.61705
       H    -1.54017  -13.26225   13.56109
       O    -1.93409  -14.15979   13.61235
      H1    -1.85558  -14.60515   12.75646

