21
frame 7 | Written by MDAnalysis XYZWriter (release 2.4.3)
       H    18.44193    0.37486   16.02361
       O    18.10873   -0.52284   15.93654
      H1    17.77349   -0.76058   16.76664
       H    17.33596    3.57823   13.39822
       O    17.26195    3.79926   14.31837
      H1    16.39464    3.43190   14.59954
       H    16.10012    0.39714   15.07994
       O    15.18881    0.68553   15.32851
      H1    14.59640    0.25334   14.68005
       H    16.10034    2.34920   17.48194
       O    16.65836    1.66745   17.90221
      H1    17.49492    2.16391   18.02260
       H    14.94709    2.23415   15.84248
       O    15.10326    3.18052   16.13029
      H1    14.24695    3.60407   16.23725
       H    17.00096    5.28978   15.36914
       O    17.09297    6.15132   15.81213
      H1    16.41991    6.74092   15.36600
       H    19.34222    2.27803   16.51900
       O    19.23574    2.16137   15.55429
      H1    18.45099    2.74426   15.33049

