21
frame 7 | Written by MDAnalysis XYZWriter (release 2.4.3)
       H    -5.22711   -0.84028   -6.85050
       O    -5.48891   -0.33012   -6.09946
      H1    -4.67018    0.04088   -5.68932
       H    -5.34926   -3.39803   -3.83420
       O    -4.58314   -3.97992   -3.99521
      H1    -4.04372   -3.53839   -4.64324
       H    -6.66969    1.79729   -8.12037
       O    -7.24362    1.21257   -7.65499
      H1    -6.63418    0.79558   -7.05374
       H    -8.25884    0.68713   -2.13800
       O    -7.35864    0.67340   -2.54870
      H1    -7.32450   -0.21082   -2.94758
       H    -9.86335   -1.39653   -4.89404
       O    -9.01894   -1.49168   -5.35234
      H1    -9.06110   -2.37877   -5.69195
       H    -6.00100   -1.29883   -4.85478
       O    -6.49329   -1.64676   -4.04598
      H1    -7.42760   -1.71180   -4.37863
       H    -5.49319    0.17268   -2.07125
       O    -4.50021   -0.00419   -1.96640
      H1    -3.99119    0.77551   -2.22823

