21
frame 6 | Written by MDAnalysis XYZWriter (release 2.4.3)
       H   -11.80483   -7.95168   16.98574
       O   -12.72833   -8.14949   17.05842
      H1   -12.94744   -7.78359   17.92086
       H   -10.29138  -10.31867   16.74607
       O   -11.02052  -10.37764   17.40631
      H1   -11.28044   -9.49208   17.56664
       H    -9.49990   -8.81021   15.95478
       O    -9.14060   -9.62522   15.69796
      H1    -8.95251   -9.56854   14.75830
       H    -8.77013   -4.63856   18.90246
       O    -9.69341   -4.52884   19.21107
      H1   -10.19847   -4.29330   18.43827
       H    -6.51299   -7.04383   18.89261
       O    -6.83371   -7.94011   19.09497
      H1    -6.89120   -8.34295   18.26056
       H    -8.35525   -4.75344   15.65734
       O    -7.90914   -5.48650   16.17537
      H1    -7.27946   -5.82536   15.56223
       H   -10.08622   -7.39671   18.15362
       O   -10.08051   -7.58492   17.22043
      H1    -9.83038   -6.74205   16.80839

