21
frame 6 | Written by MDAnalysis XYZWriter (release 2.4.3)
       H    11.66351  -16.66872   12.13751
       O    12.15149  -17.03531   11.40626
      H1    11.56665  -17.64556   10.96138
       H     9.02064  -13.79496   13.55650
       O     9.32653  -14.57076   14.00757
      H1     8.90539  -14.58832   14.89668
       H    15.07087  -18.49512   15.02963
       O    14.15939  -18.20794   14.90106
      H1    13.82144  -18.65598   14.07679
       H    10.15491  -16.03665   13.88937
       O    10.84366  -16.73911   13.96206
      H1    10.40798  -17.50075   13.62580
       H     9.27662  -17.36594    9.14534
       O     9.34460  -17.79793    9.97501
      H1     8.77119  -17.33711   10.51528
       H    12.59612  -14.63024    9.31362
       O    12.39145  -14.91983    8.40650
      H1    12.80471  -14.31157    7.75309
       H    13.25062  -15.56797   11.14133
       O    13.20971  -14.56260   10.94468
      H1    12.91091  -14.27165   11.78944

