21
frame 7 | Written by MDAnalysis XYZWriter (release 2.4.3)
       H    12.66900  -17.39605  -15.06912
       O    13.11158  -17.75074  -15.81358
      H1    13.46867  -18.64363  -15.63737
       H    13.83472  -12.19653  -19.92654
       O    14.34152  -11.66022  -19.24372
      H1    13.77328  -10.85561  -19.13677
       H    10.68322  -13.22112  -16.56614
       O    11.46656  -13.33563  -15.97896
      H1    11.88505  -14.16909  -16.23246
       H    13.91294  -15.55506  -18.82089
       O    13.85858  -15.82585  -19.73020
      H1    14.78135  -15.88370  -20.03275
       H    17.47634  -17.09263  -18.31239
       O    16.82302  -17.67522  -18.66976
      H1    16.39091  -18.12028  -17.93923
       H    11.20828  -16.13056  -16.38346
       O    10.31082  -16.48476  -16.25646
      H1     9.91554  -16.63700  -17.18863
       H    14.13271  -14.75228  -16.49167
       O    13.36402  -15.25135  -16.85479
      H1    13.50827  -16.17555  -16.62955

