21
frame 6 | Written by MDAnalysis XYZWriter (release 2.4.3)
       H    13.77583    4.89482    2.22049
       O    13.88033    4.24823    1.49769
      H1    14.21905    3.49117    2.00256
       H    12.85159    3.82295    4.34076
       O    12.38898    4.64638    4.66901
      H1    11.54599    4.73452    4.23668
       H    10.89574    6.36703    1.62496
       O    11.02583    5.45776    1.39496
      H1    11.58325    5.46877    0.62909
       H    12.25906    2.04458    1.05674
       O    11.58541    2.31309    1.67390
      H1    11.75040    3.24680    1.82662
       H    13.95208    6.97324    3.03922
       O    14.21869    6.15158    3.42882
      H1    13.57594    6.05898    4.15021
       H    16.92179    4.66897    1.79933
       O    16.92904    5.30463    2.49293
      H1    17.58926    5.18555    3.16224
       H    14.83695    4.49396   -1.12386
       O    14.12487    5.15111   -1.21920
      H1    13.87836    5.13694   -0.27220

