21
frame 6 | Written by MDAnalysis XYZWriter (release 2.4.3)
       H     8.75323   14.88769  -11.32912
       O     8.61562   15.41605  -12.13811
      H1     8.18197   14.91910  -12.80759
       H     6.77184   17.38836  -12.90746
       O     6.85669   17.74870  -13.82959
      H1     7.73032   18.14061  -13.88073
       H     5.54541   16.50128  -10.20487
       O     5.66609   16.03455  -11.04850
      H1     6.62843   15.88828  -11.15009
       H     4.08307   17.84851  -12.36660
       O     3.52313   18.63017  -12.19703
      H1     2.74463   18.22332  -11.83637
       H     3.13699   16.44329   -8.36229
       O     3.26914   15.83528   -9.12216
      H1     3.72204   14.96543   -8.87539
       H     6.06244   18.11304   -8.44882
       O     6.00497   17.16512   -8.48681
      H1     6.93961   16.88876   -8.65552
       H     5.28903   14.36957  -10.82272
       O     5.33149   13.39506  -10.58839
      H1     4.43723   13.21891  -10.29642

