21
frame 7 | Written by MDAnalysis XYZWriter (release 2.4.3)
       H   -17.93042    0.19683  -13.92765
       O   -17.30709    0.49090  -13.21054
      H1   -16.51345    0.66729  -13.76405
       H   -18.99555   -0.03101  -15.91031
       O   -19.09617   -0.66459  -15.23239
      H1   -18.53102   -1.43800  -15.54625
       H   -18.53351    2.00545  -17.23304
       O   -18.77753    1.15389  -17.57053
      H1   -18.32883    0.97775  -18.37724
       H   -16.04628   -0.63329  -18.98908
       O   -15.26207   -1.08840  -18.67710
      H1   -15.08362   -0.90335  -17.70827
       H   -17.48343   -3.06881  -16.99650
       O   -17.31774   -2.28321  -16.47375
      H1   -16.58338   -2.44711  -15.80842
       H   -18.48217    3.36930  -15.47767
       O   -17.87322    3.30720  -16.27025
      H1   -17.67659    4.14374  -16.71153
       H   -16.41599    2.22218  -15.87469
       O   -15.72017    1.88631  -15.28194
      H1   -15.54657    2.52594  -14.60759

