21
frame 6 | Written by MDAnalysis XYZWriter (release 2.4.3)
       H   -13.44566  -19.55158  -17.67194
       O   -12.60772  -19.48915  -18.09534
      H1   -12.09778  -19.19248  -17.34818
       H   -10.73023  -15.74783  -17.29420
       O   -11.31154  -15.07680  -16.94780
      H1   -10.73138  -14.31997  -16.84456
       H   -14.78833  -15.99288  -18.17043
       O   -14.58925  -16.92306  -18.12822
      H1   -14.31701  -17.16154  -19.04277
       H   -12.35441  -16.88818  -14.06413
       O   -11.42509  -16.64000  -14.26871
      H1   -11.48436  -16.06860  -15.05680
       H   -17.14732  -17.82449  -16.62341
       O   -16.53457  -18.31841  -17.18608
      H1   -15.83060  -17.64666  -17.41783
       H    -9.86588  -17.86348  -17.29702
       O    -9.60244  -17.08755  -17.85423
      H1    -8.80527  -16.75833  -17.38158
       H   -14.26876  -18.52258  -14.75060
       O   -14.01026  -17.82125  -14.16708
      H1   -14.63645  -17.05844  -14.30936

