21
frame 7 | Written by MDAnalysis XYZWriter (release 2.4.3)
       H    -3.28087  -14.11691   16.47552
       O    -3.06270  -15.08094   16.48359
      H1    -3.85739  -15.48678   16.92467
       H    -2.48299  -11.59364   18.57335
       O    -2.82237  -10.72798   18.31708
      H1    -2.11624  -10.36959   17.72935
       H    -1.79277  -16.28589   19.01800
       O    -2.45920  -16.77989   18.57169
      H1    -2.64944  -16.14213   17.77058
       H    -1.15526  -13.80180   19.84703
       O    -1.36377  -12.84643   19.54730
      H1    -0.68298  -12.50197   18.88210
       H     0.19394  -10.19779   17.00836
       O    -0.17474   -9.37624   16.66005
      H1    -0.53137   -8.77927   17.35340
       H     3.04363  -13.79401   16.56064
       O     2.54291  -13.04159   16.23163
      H1     3.21554  -12.29131   16.31543
       H     1.35134  -12.25503   17.37173
       O     0.61826  -11.89737   17.96161
      H1     0.99702  -11.89622   18.85561

