21
frame 8 | Written by MDAnalysis XYZWriter (release 2.4.3)
       H    -7.73575    0.64356  -16.55129
       O    -7.36595    0.91842  -15.69719
      H1    -7.32676    1.88363  -15.65668
       H    -3.24058   -2.87549  -17.67997
       O    -3.18731   -2.72422  -16.62906
      H1    -3.08826   -1.74700  -16.58898
       H    -7.20357   -2.97998  -17.62634
       O    -7.48667   -3.08368  -18.60426
      H1    -6.94983   -3.89113  -18.84183
       H    -4.13573   -2.36707  -19.59857
       O    -3.54429   -3.06364  -19.19412
      H1    -3.12175   -3.59393  -19.88377
       H    -6.32407   -1.14567  -18.23307
       O    -6.20130   -0.25296  -17.88930
      H1    -6.15400   -0.21731  -16.97183
       H    -6.55218    1.13425  -18.93726
       O    -6.82985    1.97831  -19.28547
      H1    -7.76778    1.98569  -19.49186
       H    -7.43881   -2.50121  -15.30718
       O    -6.61628   -2.66104  -15.87719
      H1    -5.93670   -2.15456  -15.46382

