21
frame 8 | Written by MDAnalysis XYZWriter (release 2.4.3)
       H     8.61214  -18.02251   -5.16720
       O     7.99755  -18.47222   -5.74899
      H1     7.19243  -17.97630   -5.80792
       H     2.18310  -17.06680  -10.90393
       O     2.07641  -17.94784  -11.38211
      H1     2.04632  -17.69850  -12.31596
       H     8.60761  -17.73472   -9.21252
       O     8.42331  -16.76926   -9.06212
      H1     7.63086  -16.68475   -9.57444
       H     6.01942  -16.60936   -6.00140
       O     5.44233  -17.31452   -5.67106
      H1     5.33042  -17.13779   -4.69679
       H     4.72214  -19.16136   -9.72695
       O     5.07284  -18.76446   -8.94905
      H1     4.27020  -18.39351   -8.58573
       H     5.34557  -16.64908   -9.90454
       O     6.02080  -16.06417  -10.27952
      H1     5.72272  -15.17903  -10.25862
       H     2.36643  -17.93988   -6.74652
       O     3.16633  -18.30836   -7.10215
      H1     3.91573  -18.08506   -6.51648

