21
frame 8 | Written by MDAnalysis XYZWriter (release 2.4.3)
       H    12.38328   15.17556   -0.11598
       O    12.53737   14.59993   -0.89436
      H1    11.69204   14.69678   -1.43894
       H     9.53240   11.21496   -2.31632
       O     9.16479   11.59429   -1.49319
      H1     9.90489   11.69830   -0.84821
       H    12.07746   12.25021    0.93656
       O    11.37355   12.38857    0.29208
      H1    11.75024   13.14989   -0.20173
       H    14.12651   13.26297   -0.69340
       O    14.55083   12.75992   -0.03466
      H1    14.28733   11.89177   -0.32381
       H    10.80397   15.68630    1.17224
       O     9.89418   15.43020    1.12612
      H1     9.93184   14.49657    1.43891
       H    13.12160   13.52124    3.12955
       O    12.69923   12.69054    2.95177
      H1    13.18717   11.94135    3.32544
       H     9.66908   12.64596    3.29732
       O     9.31761   12.89886    2.41717
      H1     9.86065   12.37836    1.76848

