21
frame 7 | Written by MDAnalysis XYZWriter (release 2.4.3)
       H    16.20563   -2.55451   18.54096
       O    16.54368   -1.73684   18.15133
      H1    15.75866   -1.12842   18.22397
       H    12.11108   -4.25294   19.21318
       O    12.86815   -4.55389   18.79634
      H1    13.56229   -3.90044   18.90839
       H    16.03856   -4.43436   18.33685
       O    15.49507   -3.93853   18.95519
      H1    15.84038   -4.08605   19.82584
       H    14.66919   -7.69687   17.53639
       O    13.98592   -7.08177   17.14279
      H1    13.20406   -7.01500   17.69252
       H    13.02451   -3.39331   16.37367
       O    13.01732   -4.26459   15.94984
      H1    13.30300   -4.80384   16.66633
       H    16.21646   -5.99659   16.72093
       O    16.98170   -5.52997   17.14712
      H1    17.37429   -5.06547   16.41167
       H    13.50331   -1.09193   18.71336
       O    14.03184   -0.49804   18.16373
      H1    13.71052   -0.71087   17.28602

