21
frame 7 | Written by MDAnalysis XYZWriter (release 2.4.3)
       H     9.44310   15.98365  -15.79557
       O     8.90159   15.80343  -16.51909
      H1     8.23137   15.10437  -16.29483
       H    11.13683   14.87435  -18.26514
       O    10.28942   14.84129  -18.69289
      H1     9.69745   15.29092  -18.07578
       H     6.65635   14.42791  -17.52807
       O     6.91236   14.17435  -18.42436
      H1     7.57290   13.45870  -18.25724
       H     9.52772   13.37795  -17.61107
       O     8.93374   12.59427  -17.52216
      H1     9.02970   12.31457  -16.63493
       H    10.46910   11.22406  -18.65907
       O    10.37332   10.36889  -19.13301
      H1    11.01169   10.39427  -19.86070
       H     5.99862   12.48043  -18.77177
       O     5.53960   11.63217  -18.85832
      H1     6.12488   11.07842  -19.32933
       H     9.17315   10.96197  -14.57840
       O     8.72331   11.08075  -15.44840
      H1     8.78112   10.19948  -15.91762

