21
frame 0 | Written by MDAnalysis XYZWriter (release 2.4.3)
       H   -16.88713  -16.41341   17.15747
       O   -16.05264  -16.44954   16.67036
      H1   -15.95556  -17.37383   16.36904
       H   -12.02983  -18.22849   20.21672
       O   -12.55322  -18.48336   19.40349
      H1   -12.39543  -17.72434   18.85076
       H   -14.48472  -19.65423   17.64166
       O   -14.14376  -19.53162   16.74168
      H1   -13.61616  -18.73999   16.76615
       H   -15.83009  -18.66186   19.49519
       O   -15.06955  -19.28905   19.37471
      H1   -14.29493  -18.69863   19.32601
       H   -14.32284  -16.37968   17.28381
       O   -13.44388  -16.73641   17.25811
      H1   -13.16243  -16.34782   16.41100
       H   -15.54078  -19.23611   15.80373
       O   -16.15935  -18.80701   15.17570
      H1   -15.77234  -19.10331   14.31776
       H   -17.69835  -15.07146   18.57146
       O   -18.30920  -15.84620   18.30680
      H1   -19.12313  -15.56511   18.74085

