21
frame 7 | Written by MDAnalysis XYZWriter (release 2.4.3)
       H   -11.07276    5.58999  -12.82522
       O   -10.43508    6.17140  -13.25791
      H1    -9.62257    5.68487  -13.34268
       H   -12.33976    5.13832  -11.19736
       O   -12.09457    4.56346  -11.92119
      H1   -12.95446    4.28160  -12.31828
       H   -11.02344    3.21820  -12.07678
       O   -10.13878    2.83257  -12.32705
      H1    -9.66947    3.54560  -12.75304
       H    -9.43813    3.02711  -10.53983
       O    -9.14378    3.02056   -9.62843
      H1    -9.23535    2.11022   -9.31433
       H    -8.50820    0.21368  -13.78016
       O    -9.32104    0.53382  -13.45118
      H1    -9.22807    1.39285  -13.04703
       H    -6.37095    3.13983  -10.74824
       O    -6.35841    2.73745  -11.61290
      H1    -6.57416    3.40856  -12.23813
       H    -7.71861    4.87957  -14.62546
       O    -7.94677    5.07135  -13.71368
      H1    -7.20448    5.69239  -13.41495

