21
frame 8 | Written by MDAnalysis XYZWriter (release 2.4.3)
       H   -12.04258    1.83727   12.56111
       O   -12.07970    0.90467   12.85576
      H1   -11.58834    0.92294   13.68355
       H   -14.35639    2.40856   10.34842
       O   -13.57532    2.39898    9.85392
      H1   -13.34560    1.49563    9.72479
       H   -15.73051    1.82196   11.77829
       O   -15.95788    2.46930   11.13672
      H1   -16.37752    1.99052   10.32263
       H   -12.06892   -0.05409   11.42453
       O   -12.35649   -0.49194   10.57241
      H1   -13.26868   -0.63055   10.63412
       H   -14.69237   -1.66084    9.07022
       O   -14.82655   -1.23555    9.92464
      H1   -15.35293   -1.90189   10.43991
       H   -12.43822    3.43698   11.10150
       O   -11.65042    3.60910   11.63739
      H1   -12.02792    3.84999   12.47019
       H   -12.78010    4.39424    7.54424
       O   -13.14373    3.60937    7.09480
      H1   -13.08880    2.92167    7.81090

