21
frame 7 | Written by MDAnalysis XYZWriter (release 2.4.3)
       H     8.80005    4.62400  -13.51351
       O     9.13226    4.73796  -12.60765
      H1     8.54936    5.24937  -12.08341
       H    12.92426    3.83844  -13.58776
       O    12.65663    4.02594  -12.68589
      H1    11.73455    4.03894  -12.77390
       H     8.61267    2.23794  -10.53323
       O     9.07856    2.08129  -11.44412
      H1     9.41973    2.93509  -11.74828
       H    10.65653    5.82546  -11.72603
       O    11.28988    6.48687  -11.36510
      H1    11.89886    5.95598  -10.81737
       H    13.02628    3.24712  -15.76682
       O    12.28610    3.81763  -15.51776
      H1    11.53562    3.35737  -15.77507
       H    15.92539    5.35842  -14.58796
       O    15.38539    4.59637  -14.33550
      H1    14.68577    4.84927  -13.77669
       H    13.17596    2.72350  -11.07091
       O    13.53533    2.47138  -10.20655
      H1    12.95317    1.74700   -9.97527

