21
frame 8 | Written by MDAnalysis XYZWriter (release 2.4.3)
       H   -15.87748  -14.14757   18.05119
       O   -16.29308  -13.91376   17.21264
      H1   -15.65634  -13.90150   16.51007
       H   -13.26565  -12.37202   17.52372
       O   -13.20621  -12.79053   16.65444
      H1   -13.26012  -13.73167   16.87114
       H   -12.09476  -15.43826   15.99379
       O   -12.62813  -15.50871   16.83411
      H1   -12.00640  -15.58398   17.59996
       H   -17.98779  -18.17908   19.70146
       O   -18.35018  -18.24327   18.84174
      H1   -18.33994  -17.37187   18.56479
       H   -17.70132  -15.18511   17.49298
       O   -18.47568  -15.69507   17.79089
      H1   -19.17328  -15.57932   17.11664
       H   -17.83191  -11.10596   18.42928
       O   -18.36990  -11.90689   18.41893
      H1   -17.84042  -12.64589   18.06686
       H   -14.62021  -15.90110   15.67959
       O   -14.71132  -16.76993   15.28158
      H1   -15.57157  -17.22323   15.56556

