21
frame 9 | Written by MDAnalysis XYZWriter (release 2.4.3)
       H    -9.71997    8.66559   -7.70287
       O    -9.04529    8.01819   -7.40058
      H1    -9.48341    7.18683   -7.48870
       H   -10.15449    5.13008   -6.59705
       O   -10.05015    5.33392   -7.52761
      H1    -9.55469    4.62973   -7.98947
       H   -11.91844    8.63961   -9.39169
       O   -11.68158    8.27613  -10.24462
      H1   -12.37487    8.74775  -10.73368
       H   -11.16062    5.09519  -10.72318
       O   -10.64985    4.78771  -11.50802
      H1   -11.36136    4.60885  -12.12833
       H   -14.79917    6.56787   -7.24753
       O   -14.83833    6.10465   -8.07614
      H1   -13.90591    6.00494   -8.34713
       H   -13.49251    3.11035   -7.38451
       O   -14.32496    3.45188   -7.07627
      H1   -14.46519    4.37958   -7.30135
       H   -12.19541    6.64693   -9.36693
       O   -12.24659    5.67982   -9.28952
      H1   -11.60094    5.49626   -8.59341

