21
frame 9 | Written by MDAnalysis XYZWriter (release 2.4.3)
       H    10.41353   -6.21868  -17.82198
       O    11.30356   -5.86028  -17.75242
      H1    11.88833   -6.22296  -18.44268
       H    12.39608   -9.47364  -16.67592
       O    13.21355   -8.90188  -16.68946
      H1    13.43636   -8.72327  -17.62953
       H    16.05927   -8.15360  -14.59999
       O    15.37084   -8.81400  -14.60010
      H1    14.94625   -8.69856  -15.45667
       H    13.28029   -7.69105  -14.03602
       O    12.86784   -7.05972  -14.54468
      H1    12.96755   -7.46253  -15.41508
       H    15.45451  -10.56044  -15.52223
       O    15.42501  -10.94753  -16.40797
      H1    14.72113  -10.42110  -16.84273
       H    10.81943  -10.08733  -18.19108
       O    11.02164  -10.67302  -18.97006
      H1    11.36331  -11.52088  -18.45594
       H    14.61487   -6.27426  -18.15601
       O    15.28934   -5.93497  -17.53763
      H1    14.88434   -5.44025  -16.90013

