21
frame 8 | Written by MDAnalysis XYZWriter (release 2.4.3)
       H   -16.71421  -18.80703   16.58917
       O   -16.72323  -18.33275   15.73980
      H1   -16.44470  -19.01428   15.13419
       H   -15.87748  -14.14757   18.05119
       O   -16.29308  -13.91376   17.21264
      H1   -15.65634  -13.90150   16.51007
       H   -12.09476  -15.43826   15.99379
       O   -12.62813  -15.50871   16.83411
      H1   -12.00640  -15.58398   17.59996
       H   -15.65276  -14.66854   12.95345
       O   -15.02226  -14.55652   13.72170
      H1   -14.84960  -15.45278   14.05412
       H   -13.62740  -18.67813   16.16992
       O   -12.73149  -18.30939   16.44929
      H1   -12.96617  -17.37020   16.47937
       H   -12.62019  -19.21844   14.57295
       O   -12.44188  -19.77532   13.80736
      H1   -12.42973  -19.05099   13.10769
       H   -14.62021  -15.90110   15.67959
       O   -14.71132  -16.76993   15.28158
      H1   -15.57157  -17.22323   15.56556

