21
frame 9 | Written by MDAnalysis XYZWriter (release 2.4.3)
       H     3.56565   -4.47855   -9.31638
       O     3.02223   -5.01870   -9.95964
      H1     3.59084   -5.79989   -9.97121
       H     2.66909   -9.74163   -9.10929
       O     2.61515   -8.79609   -8.92179
      H1     3.53001   -8.41158   -8.98010
       H     0.95099   -5.48456   -8.94987
       O     0.06322   -5.66128   -8.68231
      H1     0.18505   -5.95452   -7.73682
       H     2.02818   -8.70673   -7.28136
       O     1.64836   -8.65323   -6.38118
      H1     1.26284   -9.51626   -6.11306
       H     1.76677   -8.07425  -10.41563
       O     1.61602   -7.50042  -11.18802
      H1     0.67901   -7.45616  -11.40860
       H     3.44678   -8.06280  -13.28796
       O     3.88302   -8.30627  -12.44042
      H1     3.21747   -7.98329  -11.89304
       H     5.01336   -6.98335   -8.57476
       O     4.68696   -7.36723   -9.34955
      H1     5.23116   -8.00495   -9.73774

