21
frame 8 | Written by MDAnalysis XYZWriter (release 2.4.3)
       H     0.74888  -19.10502  -16.27940
       O     1.66204  -19.19132  -15.92095
      H1     1.48736  -19.83385  -15.22112
       H     3.49155  -18.18182  -17.26638
       O     4.19343  -18.82314  -17.07992
      H1     3.83202  -19.05265  -16.20477
       H     0.75393  -15.71884  -15.57271
       O     1.22812  -15.26364  -16.27323
      H1     2.06958  -14.99629  -15.91313
       H     1.46588  -17.18984  -17.61152
       O     1.99826  -17.46297  -18.40269
      H1     2.47619  -16.65474  -18.57996
       H     1.67921  -18.12556  -14.70730
       O     1.74025  -17.45465  -13.98414
      H1     2.44652  -16.83122  -14.14983
       H    -2.16542  -17.24329  -16.95457
       O    -2.86869  -16.62758  -16.68733
      H1    -2.74550  -16.58356  -15.67264
       H    -1.15621  -19.00189  -16.18459
       O    -0.73000  -18.40409  -16.86768
      H1    -1.07083  -18.79865  -17.67511

