21
frame 8 | Written by MDAnalysis XYZWriter (release 2.4.3)
       H   -18.83872   -3.67333  -12.67957
       O   -18.92797   -3.47864  -13.66364
      H1   -19.66036   -4.04093  -13.93043
       H   -17.72367   -0.13296  -16.39309
       O   -17.91855   -0.95930  -15.93094
      H1   -17.11229   -1.50651  -16.16059
       H   -18.48604   -6.74482  -15.68421
       O   -19.17661   -6.62654  -16.34347
      H1   -19.18396   -7.45738  -16.84216
       H   -14.88399   -3.61488  -17.49034
       O   -14.26562   -4.21509  -17.98094
      H1   -14.27970   -3.94604  -18.90258
       H   -14.94250   -5.98560  -17.10179
       O   -15.06851   -6.92921  -17.03213
      H1   -14.09719   -7.18488  -17.06410
       H   -16.72926   -3.36671  -16.83832
       O   -16.06157   -2.97888  -16.24858
      H1   -16.09402   -3.53055  -15.49221
       H   -18.79927   -3.90594  -17.61370
       O   -18.18371   -4.58936  -18.04130
      H1   -18.23548   -5.43862  -17.47692

