21
frame 0 | Written by MDAnalysis XYZWriter (release 2.4.3)
       H   -16.42083   -7.34768   -6.09618
       O   -15.56875   -7.03425   -5.70385
      H1   -15.22932   -6.54847   -6.47268
       H   -14.46388   -9.81027   -6.74191
       O   -14.55211   -9.50106   -5.82022
      H1   -15.00711   -8.66238   -5.92474
       H   -12.14712   -8.65633   -4.60602
       O   -11.94541   -7.82190   -4.15137
      H1   -11.32414   -8.07242   -3.41521
       H   -15.62335  -11.24274   -5.19570
       O   -15.74637  -12.12910   -5.50832
      H1   -15.81651  -12.66430   -4.73247
       H   -12.71280  -11.69788   -8.85054
       O   -13.22835  -11.09167   -8.34161
      H1   -14.14856  -11.29090   -8.53597
       H   -10.53666  -10.71742   -5.65254
       O   -11.26641  -10.19747   -6.04393
      H1   -11.55494  -10.72827   -6.78626
       H   -14.13531  -12.95300   -5.49573
       O   -13.35894  -13.55517   -5.69809
      H1   -12.59400  -13.12492   -5.22527

