21
frame 8 | Written by MDAnalysis XYZWriter (release 2.4.3)
       H     9.16399    1.36834   -6.73086
       O     8.77349    0.74878   -7.37245
      H1     8.13891    1.21620   -7.93832
       H     7.49063   -3.13970   -8.41285
       O     6.96042   -3.72092   -8.92861
      H1     6.97018   -3.38349   -9.84434
       H     7.04932   -2.57092   -5.55293
       O     7.84823   -3.12188   -5.38396
      H1     8.35225   -2.66059   -4.61421
       H     9.74079   -2.27553   -9.66782
       O     9.88956   -2.21417  -10.61268
      H1     8.99328   -2.21035  -11.01276
       H     8.88673   -1.00407   -7.67582
       O     8.91499   -1.97688   -7.72978
      H1     8.64738   -2.22631   -6.85094
       H    11.36720   -4.32188   -6.70031
       O    11.35796   -3.94554   -7.61117
      H1    11.83284   -3.08844   -7.55836
       H     9.33569   -0.95925   -3.68808
       O     9.29887   -1.91113   -3.58332
      H1     9.14671   -2.15262   -2.63423

