21
frame 8 | Written by MDAnalysis XYZWriter (release 2.4.3)
       H    13.30004    8.96872    2.43758
       O    13.03078    8.17230    2.02588
      H1    13.84523    8.02523    1.46655
       H    17.70603   11.28351   -1.56977
       O    17.11661   10.69028   -2.10985
      H1    16.25238   10.66981   -1.63750
       H    12.07237   11.58403   -2.38876
       O    12.62234   10.82977   -2.61946
      H1    11.98077   10.13663   -2.74388
       H    12.07746   12.25021    0.93656
       O    11.37355   12.38857    0.29208
      H1    11.75024   13.14989   -0.20173
       H    15.69777    7.34435    0.03665
       O    14.77543    7.29706   -0.27463
      H1    14.66949    6.77032   -1.09949
       H    13.52440   10.07797   -0.94263
       O    14.39490    9.98820   -0.51806
      H1    14.61962    9.04900   -0.61909
       H    14.12651   13.26297   -0.69340
       O    14.55083   12.75992   -0.03466
      H1    14.28733   11.89177   -0.32381

