21
frame 8 | Written by MDAnalysis XYZWriter (release 2.4.3)
       H   -16.96525    4.66876   18.09581
       O   -15.98488    4.72797   17.88418
      H1   -15.84956    5.69081   17.90643
       H   -18.66361    6.05046   15.38281
       O   -17.79029    5.66659   15.60954
      H1   -17.41861    5.00752   14.99849
       H   -16.01053    4.14989   12.12300
       O   -15.95426    4.50057   13.02660
      H1   -15.63882    5.37931   13.04736
       H   -16.31306    6.81829   15.96063
       O   -15.39938    7.18430   16.02385
      H1   -14.94572    7.03633   15.18552
       H   -17.98451    8.09963   18.05588
       O   -18.83098    7.59613   18.10880
      H1   -19.38882    7.99503   18.81540
       H   -15.79168    4.03322   16.29251
       O   -15.64586    3.31153   15.63176
      H1   -15.60623    3.64213   14.64984
       H   -18.69189    5.49067   18.32035
       O   -18.60341    4.57084   17.96455
      H1   -18.38894    4.94070   17.05534

