21
frame 9 | Written by MDAnalysis XYZWriter (release 2.4.3)
       H    16.66549   17.94275   14.23646
       O    17.29682   17.50752   14.87133
      H1    18.17117   17.91323   14.80377
       H    17.47898   14.50587    9.98305
       O    18.15690   15.20027   10.22469
      H1    17.69923   15.56882   11.00226
       H    19.49517   13.74620   14.17215
       O    18.65537   13.33518   14.09838
      H1    18.77972   12.38862   13.85531
       H    17.65108   14.89073   16.54954
       O    17.03944   14.25583   16.86998
      H1    16.34485   14.72814   17.32734
       H    15.84354   15.51892   12.16969
       O    14.87688   15.37643   12.06488
      H1    14.75353   14.45503   11.83936
       H    14.55551   14.80813   14.05907
       O    14.72042   14.87560   15.01213
      H1    15.69181   14.87499   15.07435
       H    17.52983   16.28165   13.49103
       O    17.46238   15.62618   12.74842
      H1    17.71606   14.76708   13.14065

