21
frame 9 | Written by MDAnalysis XYZWriter (release 2.4.3)
       H    -1.35721   17.91487  -17.41646
       O    -0.47001   17.58456  -17.24033
      H1    -0.62922   16.63196  -17.18526
       H    -4.03415   16.83781  -17.38975
       O    -4.44774   16.03924  -17.20108
      H1    -4.74483   15.60690  -17.99628
       H    -0.94584   18.93648  -14.43948
       O    -1.60204   18.70286  -15.12365
      H1    -1.05618   18.34803  -15.83155
       H     2.83099   16.72492  -18.31437
       O     3.58626   16.23478  -17.92510
      H1     4.28116   16.86495  -17.77772
       H    -3.71115   19.46581  -18.02623
       O    -3.22718   18.64737  -17.99571
      H1    -3.11551   18.42956  -18.89317
       H    -1.19497   14.50609  -16.05014
       O    -1.13283   14.80794  -16.95781
      H1    -2.00883   14.84905  -17.33860
       H     0.86376   17.88931  -18.47968
       O     1.79351   18.04122  -18.77387
      H1     2.14902   18.70020  -18.17398

