21
frame 0 | Written by MDAnalysis XYZWriter (release 2.4.3)
       H    19.02088    8.04988   17.36753
       O    18.27479    7.62787   16.99063
      H1    17.55054    8.30202   16.82674
       H    18.50774    6.85544   13.51398
       O    18.63742    7.77990   13.63902
      H1    19.03343    7.94064   14.49337
       H    17.26759    5.78880   19.47218
       O    16.68701    6.21174   18.83997
      H1    17.30899    6.69258   18.31517
       H    16.87198   10.67698   17.67419
       O    16.63144    9.79704   17.28850
      H1    15.94049   10.05650   16.67070
       H    17.77002   12.40011   19.22592
       O    17.89729   11.82010   18.47022
      H1    18.39504   11.05422   18.76452
       H    18.96699    4.06879   15.69031
       O    19.77006    4.62375   15.98317
      H1    19.49029    5.50032   16.31640
       H    15.61769    9.91615   18.67153
       O    15.07083   10.05966   19.42513
      H1    15.53570   10.33828   20.23906

