21
frame 9 | Written by MDAnalysis XYZWriter (release 2.4.3)
       H     0.64766   -2.24553    2.78897
       O     1.27150   -2.21490    3.54835
      H1     0.84979   -1.67004    4.22279
       H     3.90072   -4.39860    2.32603
       O     3.43812   -4.96805    2.94469
      H1     2.52344   -4.61136    2.82731
       H     3.37910   -0.05973    3.61479
       O     2.76125    0.03403    2.86152
      H1     2.29924   -0.79489    2.91666
       H    -0.01462   -3.97485    4.23717
       O    -0.96249   -4.27993    4.37977
      H1    -1.39863   -3.75707    5.04170
       H    -1.87364   -2.51195    2.08839
       O    -1.03090   -2.19629    1.71379
      H1    -0.71736   -3.03596    1.32893
       H    -1.29684   -0.39004    2.11208
       O    -1.48721    0.55535    2.36439
      H1    -2.45838    0.44725    2.41811
       H    -0.33551   -1.28385    0.14946
       O     0.16437   -0.77202   -0.48546
      H1    -0.45705   -0.66093   -1.24105

