21
frame 0 | Written by MDAnalysis XYZWriter (release 2.4.3)
       H    -2.99539    2.83032   -3.14153
       O    -3.86636    2.44209   -2.99600
      H1    -4.09026    2.78442   -2.14275
       H    -7.50455    2.84031   -4.52712
       O    -6.53916    3.05216   -4.34209
      H1    -6.48387    2.85807   -3.38309
       H    -4.49954    2.56776    0.44531
       O    -4.80595    1.71720    0.84064
      H1    -4.78787    1.00033    0.27413
       H    -6.87583    1.18279   -2.38849
       O    -6.90628    1.97468   -1.87789
      H1    -6.81477    1.78425   -0.91447
       H    -6.29405   -0.11937   -3.80979
       O    -6.98980   -0.42220   -3.29303
      H1    -7.44057   -1.13031   -3.74070
       H    -8.06625    4.45621   -2.43165
       O    -9.02457    4.74274   -2.56778
      H1    -9.53750    3.87104   -2.67666
       H    -9.13730    0.22332   -0.40536
       O    -9.44587    1.08136   -0.16138
      H1    -8.74089    1.35971    0.43950

