21
frame 9 | Written by MDAnalysis XYZWriter (release 2.4.3)
       H   -11.32343   -9.83771    4.22930
       O   -12.27734   -9.89170    4.17827
      H1   -12.60364   -9.09035    4.55181
       H   -14.88502   -9.15837    2.46612
       O   -14.96197  -10.08360    2.20456
      H1   -14.10381  -10.29663    1.85953
       H   -11.86324   -6.29251    1.27637
       O   -11.39303   -5.50492    1.63846
      H1   -10.48109   -5.68643    1.39352
       H   -14.07936   -7.51253    1.95311
       O   -14.74861   -7.37591    2.61878
      H1   -15.47316   -6.80334    2.19618
       H   -17.81554   -7.00009    1.46127
       O   -17.07388   -6.35313    1.32329
      H1   -16.71486   -6.69087    0.47396
       H   -15.50297   -6.19024    5.68476
       O   -15.78765   -6.91229    5.14052
      H1   -15.26410   -7.02925    4.35335
       H   -13.09930   -7.65977   -0.06968
       O   -12.61381   -8.09689    0.65510
      H1   -12.40311   -8.98258    0.39280

