21
frame 9 | Written by MDAnalysis XYZWriter (release 2.4.3)
       H   -16.49449   -7.76139   -1.91799
       O   -16.42963   -6.88221   -1.50615
      H1   -15.55259   -6.66111   -1.24863
       H   -16.27340   -5.75625   -7.73919
       O   -16.71570   -6.14092   -7.03384
      H1   -17.25711   -5.53844   -6.48724
       H   -18.27160   -6.70884   -1.29326
       O   -19.21425   -6.42450   -1.46057
      H1   -19.49724   -6.29406   -0.52005
       H   -18.00836   -9.58094   -1.16546
       O   -18.53245   -9.60311   -1.96919
      H1   -19.43260   -9.70675   -1.71170
       H   -19.01420   -5.35311   -4.85729
       O   -18.23785   -4.80978   -5.05744
      H1   -18.54690   -3.93984   -5.30446
       H   -19.15376   -9.04681   -3.52368
       O   -19.41163   -8.67748   -4.40903
      H1   -19.80092   -7.75394   -4.28591
       H   -17.69483   -8.41984   -4.89297
       O   -16.71689   -8.32740   -4.96845
      H1   -16.57518   -7.59270   -5.64448

