21
frame 10 | Written by MDAnalysis XYZWriter (release 2.4.3)
       H    18.20411   18.65221  -17.08773
       O    18.95890   18.20905  -17.43446
      H1    19.00969   18.44551  -18.35995
       H    14.85863   19.19445  -19.14981
       O    15.46634   18.64418  -18.58465
      H1    16.26439   19.07050  -18.93625
       H    12.17172   17.05394  -19.63475
       O    11.71247   16.86616  -18.78869
      H1    10.90818   16.36560  -19.06075
       H    13.92886   18.93233  -17.06549
       O    13.38713   19.70486  -16.81342
      H1    12.43876   19.49839  -16.83767
       H    17.14237   18.70117  -14.55406
       O    17.29095   19.46108  -15.20245
      H1    18.23414   19.60851  -15.11071
       H    13.68209   18.72549  -15.01220
       O    13.84698   18.00768  -14.44594
      H1    13.65207   17.21204  -14.99565
       H    16.89268   15.23456  -19.34481
       O    17.34631   14.60732  -18.75499
      H1    18.31066   14.79634  -18.66921

