21
frame 10 | Written by MDAnalysis XYZWriter (release 2.4.3)
       H   -15.85336   16.73074  -12.04080
       O   -16.16957   17.55971  -12.51294
      H1   -16.62923   18.19334  -11.93802
       H   -14.83406   15.71759  -10.39428
       O   -14.95339   15.36279  -11.34434
      H1   -14.12351   14.98656  -11.70133
       H   -18.28086   17.69313   -4.68811
       O   -17.40285   17.83067   -5.03472
      H1   -17.37058   17.11162   -5.75390
       H   -16.65564   19.61994   -9.48928
       O   -16.48136   19.09483   -8.67216
      H1   -15.92879   19.69178   -8.10811
       H   -17.77286   17.80007   -8.43202
       O   -18.11793   16.87708   -8.55267
      H1   -18.93788   16.86233   -7.98615
       H   -15.60201   17.32319   -8.88938
       O   -15.04123   16.48792   -8.82161
      H1   -15.38277   15.92722   -8.15376
       H   -17.92523   16.66198  -12.27438
       O   -18.59648   15.95360  -12.31936
      H1   -18.84970   15.80698  -13.24993

