21
frame 9 | Written by MDAnalysis XYZWriter (release 2.4.3)
       H   -14.18597   14.84087    4.07719
       O   -14.17493   14.99530    5.00265
      H1   -14.90602   15.51147    5.34181
       H   -13.44030   18.26414    3.58198
       O   -14.16272   18.69067    4.14790
      H1   -14.10349   18.37526    5.04376
       H   -16.62184   17.85078    3.87968
       O   -17.45034   17.51287    4.29173
      H1   -17.74906   16.91798    3.56198
       H   -15.63064   16.80617    6.63623
       O   -16.16486   15.98963    6.49781
      H1   -16.50566   16.18164    5.59084
       H   -14.17246   17.99561    8.00925
       O   -14.12380   18.20095    7.03418
      H1   -13.44157   17.57053    6.69516
       H   -16.58168   14.98679    8.68974
       O   -16.36931   15.62501    9.38610
      H1   -15.44018   15.85869    9.28304
       H   -18.02846   15.26793    6.78818
       O   -18.88812   14.87441    7.06055
      H1   -19.45958   15.69633    7.06098

