21
frame 9 | Written by MDAnalysis XYZWriter (release 2.4.3)
       H   -13.96674   11.60415   12.08404
       O   -14.50112   10.89677   12.45547
      H1   -15.39844   11.07355   12.08614
       H   -13.21488   14.82229   12.69222
       O   -14.03105   15.29302   12.73489
      H1   -14.41230   15.17826   13.65517
       H   -16.69794   12.23103   11.07200
       O   -16.90649   11.67367   11.81174
      H1   -17.67799   12.10439   12.16283
       H   -11.88555   12.76386   13.11629
       O   -11.83279   13.32569   12.32052
      H1   -11.74777   12.75100   11.56556
       H   -14.96093   13.78426   11.56637
       O   -15.07933   13.49029   10.70435
      H1   -15.55433   14.22913   10.20201
       H   -16.58168   14.98679    8.68974
       O   -16.36931   15.62501    9.38610
      H1   -15.44018   15.85869    9.28304
       H   -13.82392   13.77034    9.52292
       O   -13.31698   13.74665    8.70452
      H1   -13.87651   13.35804    8.08341

