21
frame 1 | Written by MDAnalysis XYZWriter (release 2.4.3)
       H     0.37445   12.77044   -7.77826
       O     1.27579   12.58532   -8.12938
      H1     1.56439   13.46178   -8.39962
       H     3.67977   14.40070   -8.50032
       O     3.16718   14.36052   -9.31271
      H1     2.33324   14.80039   -9.15176
       H     0.33127   15.58353   -7.81371
       O     0.80468   15.71590   -8.66982
      H1     1.09671   16.64307   -8.74730
       H    -1.48469   12.85911   -6.16157
       O    -1.12468   12.97592   -7.05391
      H1    -1.59117   12.42005   -7.67674
       H     1.93129   11.51151   -6.52353
       O     2.09042   11.43305   -5.52379
      H1     1.63827   12.21676   -5.14662
       H     1.24692   10.41964   -9.96801
       O     1.84964   11.00619  -10.43892
      H1     1.92295   11.79837   -9.93596
       H    -0.67124   15.74838   -9.82663
       O    -1.46922   16.09548  -10.21886
      H1    -1.69546   16.89174   -9.69567

