21
frame 9 | Written by MDAnalysis XYZWriter (release 2.4.3)
       H   -11.82931   15.74685   -2.08546
       O   -12.28368   15.87717   -1.24216
      H1   -11.85642   15.40267   -0.53815
       H   -13.16376   15.39611   -3.40652
       O   -14.01388   14.94127   -3.54459
      H1   -14.72595   15.53264   -3.25997
       H   -14.00115   13.62326   -2.22263
       O   -13.79232   12.87317   -1.65955
      H1   -14.53738   12.24999   -1.72089
       H   -11.58134   10.94092   -2.87914
       O   -12.22474   11.27409   -3.48478
      H1   -12.92039   11.82106   -3.07539
       H   -14.36349    9.98109    1.25499
       O   -14.40733   10.87030    0.87858
      H1   -15.27184   11.00272    0.47841
       H   -11.78832   11.25043    0.25306
       O   -11.34439   11.87432   -0.35355
      H1   -12.13334   12.24751   -0.82506
       H   -16.67524   10.79436   -1.10714
       O   -16.21947   11.59964   -1.32825
      H1   -16.78458   12.28302   -0.99641

