21
frame 10 | Written by MDAnalysis XYZWriter (release 2.4.3)
       H    -6.44372   -4.63519    5.91773
       O    -7.19888   -4.36568    5.36890
      H1    -7.07896   -3.48504    5.00826
       H    -5.43136   -7.48749    4.85771
       O    -4.59157   -7.02618    5.05968
      H1    -4.63940   -6.20437    4.56303
       H    -5.14482   -3.06167    9.58545
       O    -4.45778   -2.41051    9.56619
      H1    -4.97424   -1.61699    9.89486
       H    -5.12667   -5.38814    8.41394
       O    -5.34917   -5.19969    9.35956
      H1    -5.71396   -6.06403    9.68420
       H    -2.42178   -2.60847    6.47842
       O    -3.11028   -2.75470    5.89348
      H1    -3.78668   -2.07691    5.91307
       H    -0.84049   -3.95270    4.54018
       O    -1.36982   -4.72956    4.70445
      H1    -2.19036   -4.42989    5.04901
       H    -4.19292   -4.29036    6.62878
       O    -4.84069   -4.94180    6.74306
      H1    -4.51368   -5.78367    6.47841

