21
frame 10 | Written by MDAnalysis XYZWriter (release 2.4.3)
       H    11.88274   -7.50718   -8.61063
       O    12.46570   -7.09446   -7.90301
      H1    13.07739   -7.74920   -7.62553
       H    11.53086   -4.36769  -10.02280
       O    11.50383   -4.73703  -10.91300
      H1    11.13881   -3.96759  -11.39119
       H    13.89579   -2.59734  -11.61918
       O    13.46924   -2.25598  -10.79461
      H1    12.90099   -2.93553  -10.34514
       H    13.41512   -5.76972   -8.35055
       O    14.23864   -5.39867   -8.77577
      H1    14.25750   -4.42554   -8.66416
       H    11.99453   -3.40833   -8.00640
       O    11.37007   -3.45726   -8.73118
      H1    10.58253   -3.00719   -8.44396
       H    14.04804   -6.13978  -10.88039
       O    13.33682   -6.49781  -11.54958
      H1    12.64578   -5.87097  -11.39924
       H    17.12016   -6.22814   -7.38220
       O    16.29164   -5.80786   -7.13145
      H1    15.68277   -5.98823   -7.85753

