21
frame 9 | Written by MDAnalysis XYZWriter (release 2.4.3)
       H   -16.26019  -18.86977   15.90432
       O   -16.12814  -18.57297   15.01127
      H1   -16.44285  -19.28995   14.43884
       H   -15.86216  -18.21708   11.37111
       O   -16.47983  -17.67651   11.82741
      H1   -16.14074  -17.61538   12.73208
       H   -11.74252  -17.10381   11.47588
       O   -11.55802  -17.81511   12.06487
      H1   -11.54827  -17.36729   12.90455
       H   -11.45140  -15.51905   13.52812
       O   -11.39320  -16.19935   14.22621
      H1   -10.36823  -16.33991   14.28056
       H   -13.39989  -17.21416   16.00611
       O   -12.86758  -18.00905   16.22425
      H1   -12.00401  -17.73038   16.40040
       H   -12.93785  -19.20020   14.40177
       O   -12.78573  -19.58365   13.52376
      H1   -12.35685  -18.82234   12.98837
       H   -14.80996  -15.93589   15.65568
       O   -15.08396  -16.16066   14.75743
      H1   -15.58876  -16.96892   14.89355

