21
frame 1 | Written by MDAnalysis XYZWriter (release 2.4.3)
       H    17.17927    5.33062   11.48151
       O    16.43034    5.94057   11.73759
      H1    15.78859    5.21944   12.04148
       H    18.70474    4.02865    9.91123
       O    18.45253    4.38423   10.76359
      H1    18.88695    3.62232   11.24096
       H    15.13326    3.05972    8.49866
       O    16.08317    3.18883    8.73087
      H1    16.08059    4.09576    9.11422
       H    16.17366    2.61420   12.92134
       O    15.95438    3.24925   13.56698
      H1    15.55065    2.68066   14.25181
       H    18.93930    2.25959    8.46484
       O    19.20075    3.18322    8.38596
      H1    18.65090    3.43014    7.62351
       H    17.77831   -0.15243    9.89657
       O    17.77982   -0.50332   10.78060
      H1    18.59811   -0.14696   11.21046
       H    16.57912    2.40340   10.43239
       O    16.48574    1.96383   11.24073
      H1    16.97325    1.13400   11.16994

