21
frame 9 | Written by MDAnalysis XYZWriter (release 2.4.3)
       H   -16.22439    4.67125   18.31082
       O   -15.35091    5.13305   18.21881
      H1   -15.27144    6.01114   18.56242
       H   -19.58646    6.13750   16.20746
       O   -18.75955    5.72134   15.93249
      H1   -19.03839    5.41483   15.07889
       H   -18.42305    3.09174   14.32438
       O   -18.21005    3.39651   13.45117
      H1   -17.25472    3.53428   13.58420
       H   -19.28724   -2.45008   18.36265
       O   -18.74389   -1.61931   18.36456
      H1   -19.28870   -0.88622   18.75198
       H   -16.47296    0.53861   18.42980
       O   -16.57332    0.01209   19.19517
      H1   -16.95022   -0.78957   18.82001
       H   -19.13804    3.57236   18.66983
       O   -19.35839    2.71046   18.23351
      H1   -18.91671    2.09667   18.82697
       H   -17.61347    5.79571   19.02599
       O   -17.97936    4.96458   18.69309
      H1   -18.15619    5.10963   17.75151

