21
frame 9 | Written by MDAnalysis XYZWriter (release 2.4.3)
       H    18.21401   10.74226   12.77435
       O    18.32635   10.74820   13.73407
      H1    19.15579   10.26433   13.90229
       H    19.49517   13.74620   14.17215
       O    18.65537   13.33518   14.09838
      H1    18.77972   12.38862   13.85531
       H    18.31084   10.27281   10.77903
       O    17.60746   10.96071   11.00519
      H1    16.80852   10.42519   11.11115
       H    17.80877    7.42832   16.06556
       O    18.67734    7.76799   16.43893
      H1    18.50242    8.21634   17.29878
       H    17.04213    5.52111   14.86904
       O    16.56579    6.31820   15.14281
      H1    16.61456    6.88077   14.32194
       H    17.12371   11.41101   15.11501
       O    16.40087   11.65333   15.69729
      H1    16.63656   12.52651   16.01843
       H    16.34749    8.63411   12.71916
       O    17.14918    8.18851   13.11838
      H1    17.69108    8.94196   13.28020

