21
frame 9 | Written by MDAnalysis XYZWriter (release 2.4.3)
       H     2.74667   17.63090   -3.76593
       O     2.55139   17.56820   -2.85307
      H1     1.69617   18.01916   -2.89637
       H     2.81104   18.09182    0.50026
       O     1.94940   17.92546    0.85740
      H1     1.38292   17.92601    0.09680
       H     7.02206   19.33750   -4.64813
       O     6.42878   18.51281   -4.49214
      H1     6.32248   18.43206   -3.53344
       H     2.09862   16.16736   -1.44095
       O     1.80254   15.27416   -1.24306
      H1     1.19783   15.34721   -0.54206
       H     5.11225   18.97750   -1.72105
       O     4.31464   19.59719   -1.75530
      H1     3.65299   18.97613   -2.18503
       H     3.30369   18.17749   -6.29326
       O     3.29285   18.63591   -5.44688
      H1     4.23236   18.73672   -5.20251
       H     7.07592   18.47758   -0.54196
       O     6.94789   18.75026   -1.48059
      H1     7.19253   19.69198   -1.52646

