21
frame 9 | Written by MDAnalysis XYZWriter (release 2.4.3)
       H   -16.57512    1.20208    5.46721
       O   -16.48898    0.50038    4.78409
      H1   -16.58529    0.97495    3.93163
       H   -16.71417    3.58879    6.44042
       O   -17.11222    2.77016    6.87067
      H1   -18.03001    2.96111    7.04901
       H   -18.03662    0.52202    2.41660
       O   -17.25413    1.06405    2.21703
      H1   -17.63166    1.95886    2.06324
       H   -16.96542    1.75625    8.42176
       O   -16.73645    1.39165    9.32315
      H1   -16.15164    0.60277    9.13247
       H   -14.46956   -1.52552    4.98978
       O   -14.18118   -0.68197    5.28873
      H1   -14.92039   -0.10644    4.97754
       H   -11.96064   -0.49430    7.81122
       O   -12.83267   -0.02484    7.71891
      H1   -13.20180   -0.22890    6.89436
       H   -17.24397   -1.15502    5.60125
       O   -17.68508   -1.97338    5.93759
      H1   -17.70271   -2.41005    5.09552

