21
frame 9 | Written by MDAnalysis XYZWriter (release 2.4.3)
       H   -16.95163  -20.19614   -4.85173
       O   -16.93021  -19.17732   -4.74684
      H1   -17.67883  -18.74574   -5.28486
       H   -12.58879  -18.52201   -8.91692
       O   -12.47554  -18.62686   -7.93794
      H1   -13.38836  -18.52441   -7.59206
       H   -15.74037  -18.12345   -5.50712
       O   -15.29538  -17.73150   -6.24359
      H1   -14.72637  -17.01185   -5.94435
       H   -19.50028  -17.58594   -6.46775
       O   -19.09140  -18.01487   -5.73903
      H1   -19.17422  -17.47035   -4.97461
       H   -15.45234  -19.18943  -11.04695
       O   -15.91562  -20.05861  -10.88992
      H1   -16.70886  -19.80645  -11.37673
       H   -16.18484  -19.93535   -8.74707
       O   -16.04326  -19.94329   -7.80634
      H1   -16.08091  -19.00860   -7.48543
       H   -15.60685  -16.64265   -8.42387
       O   -16.09244  -16.68672   -9.21041
      H1   -15.59355  -17.18279   -9.87984

