21
frame 9 | Written by MDAnalysis XYZWriter (release 2.4.3)
       H   -18.23847    1.06519   -5.45276
       O   -17.59456    1.78052   -5.70973
      H1   -17.04708    1.46344   -6.46556
       H   -19.45132    3.59971   -7.29562
       O   -19.32415    3.83066   -6.37238
      H1   -18.63166    3.21844   -6.17780
       H   -18.21276    8.42749   -7.35327
       O   -17.49367    8.48371   -6.71863
      H1   -16.80259    9.08716   -7.05998
       H   -19.00946    2.10463   -8.80814
       O   -19.02740    3.06399   -8.99928
      H1   -19.84836    3.33381   -9.43007
       H   -17.68332    5.31832   -2.36871
       O   -17.08694    4.82479   -2.94478
      H1   -17.23337    5.10308   -3.87364
       H   -19.20480    5.57344   -1.31690
       O   -18.94608    6.43307   -1.63540
      H1   -19.27559    6.55079   -2.53718
       H   -17.80429    6.82915   -5.87974
       O   -18.00201    5.96998   -5.45477
      H1   -18.43103    5.46594   -6.14133

