21
frame 10 | Written by MDAnalysis XYZWriter (release 2.4.3)
       H     4.61766  -14.06739   11.00186
       O     5.23941  -14.47916   11.67236
      H1     5.74246  -15.13550   11.15326
       H     5.53825  -20.05486   10.59279
       O     5.71090  -19.29927    9.98798
      H1     6.02272  -18.53759   10.42831
       H     9.28333  -18.47562   10.38434
       O     8.64647  -19.09503   10.73393
      H1     9.14102  -19.38970   11.54733
       H     8.12687  -16.02138   11.18917
       O     8.89763  -15.50333   10.84530
      H1     9.05514  -14.83038   11.56341
       H     3.79091  -17.41340    8.31008
       O     3.53427  -17.40571    9.24707
      H1     4.02716  -18.15368    9.64900
       H     7.30647  -17.83845   11.44878
       O     6.72669  -17.02407   11.57584
      H1     6.64260  -16.89202   12.55493
       H     6.90124  -16.32383    6.68434
       O     6.91415  -16.69774    7.58499
      H1     6.70808  -17.59293    7.33908

