21
frame 9 | Written by MDAnalysis XYZWriter (release 2.4.3)
       H   -11.03964    6.99695  -16.21926
       O   -10.71144    7.47251  -16.98689
      H1   -11.33445    8.21492  -17.00927
       H   -10.59704    9.20376  -14.50104
       O   -10.26030    9.87861  -15.14024
      H1    -9.38059    9.59785  -15.48592
       H   -12.89412   13.37926  -17.36832
       O   -13.38797   14.22062  -17.25320
      H1   -13.53404   14.51699  -18.23302
       H   -10.24775   12.31035  -16.89633
       O   -10.88241   12.27195  -17.62967
      H1   -11.22653   11.31494  -17.71419
       H    -8.33646   12.60553  -18.95070
       O    -7.52375   12.58942  -18.43753
      H1    -7.67829   13.16902  -17.61715
       H   -13.20866   10.16903  -17.05976
       O   -12.25559    9.91644  -17.19855
      H1   -11.84762    9.93947  -16.30470
       H    -9.89416   13.68539  -15.04901
       O   -10.74931   13.15145  -14.84974
      H1   -10.37054   12.37023  -14.41015

