21
frame 9 | Written by MDAnalysis XYZWriter (release 2.4.3)
       H   -19.58646    6.13750   16.20746
       O   -18.75955    5.72134   15.93249
      H1   -19.03839    5.41483   15.07889
       H   -17.25596    6.09245   15.54902
       O   -16.26950    6.19833   15.38274
      H1   -16.02007    6.66173   14.56075
       H   -16.85605   11.34437   14.44286
       O   -17.70992   11.66679   14.76014
      H1   -17.63457   11.89009   15.68950
       H   -19.39426    8.59438   15.37014
       O   -19.04819    9.16951   14.61889
      H1   -18.56171    9.93693   15.03216
       H   -18.88375    7.13603   12.63710
       O   -18.38321    7.85823   12.33111
      H1   -18.48084    8.42179   13.15266
       H   -17.82556   11.63876   18.32549
       O   -18.15177   11.65859   17.43657
      H1   -18.98714   12.11611   17.57004
       H   -18.95419    9.67230    9.60749
       O   -19.62416    9.30452   10.26448
      H1   -19.13808    8.89857   10.99492

