24
frame 1 | Written by MDAnalysis XYZWriter (release 2.4.3)
       H    -5.93324   11.15843  -13.83554
       O    -6.21502   11.93256  -13.31119
      H1    -6.53002   11.42512  -12.49809
       H    -5.52579    9.71118   -8.27543
       O    -6.29563   10.15363   -7.90566
      H1    -7.06853    9.89073   -8.41041
       H    -7.99630    8.31371   -8.88985
       O    -8.33470    8.99396   -9.50904
      H1    -9.25752    9.10196   -9.22247
       H    -7.03005   13.66460  -10.37634
       O    -7.91907   13.39077  -10.15069
      H1    -8.53383   13.40572  -10.92030
       H    -6.89578   13.41337   -7.79806
       O    -6.04082   13.05474   -7.63115
      H1    -6.17564   12.09823   -7.93235
       H    -9.44027   13.29861  -12.65511
       O    -9.93440   13.26974  -11.83415
      H1   -10.24892   14.13288  -11.61342
       H    -8.82748   11.47968  -14.42638
       O    -9.20636   10.96671  -13.67216
      H1    -8.62433   11.06573  -12.96705
       H    -7.79212   11.78928  -10.65412
       O    -7.46226   10.98547  -11.12517
      H1    -7.80802   10.24131  -10.60096

