24
frame 1 | Written by MDAnalysis XYZWriter (release 2.4.3)
       H   -13.28639  -18.16966  -15.90771
       O   -12.80119  -18.30899  -16.71018
      H1   -12.50511  -19.19975  -16.69494
       H   -10.28001  -15.62779  -16.35126
       O   -10.71969  -14.86892  -15.98311
      H1    -9.94892  -14.42853  -15.53082
       H   -14.54723  -15.37337  -17.72583
       O   -14.64252  -15.91154  -18.52546
      H1   -13.77300  -16.24110  -18.67439
       H   -11.33457  -16.65151  -19.24092
       O   -12.23961  -17.02068  -19.09475
      H1   -12.17960  -17.25689  -18.15774
       H   -13.72210  -13.85361  -16.33935
       O   -14.46623  -14.47383  -16.03907
      H1   -15.25363  -13.93724  -16.12230
       H   -16.49510  -17.17051  -16.05153
       O   -15.73102  -17.58699  -16.48598
      H1   -15.24002  -16.91882  -16.97419
       H    -9.36672  -16.46945  -19.05655
       O    -9.73985  -16.22728  -19.91102
      H1    -9.83087  -15.25761  -19.89188
       H    -8.21670  -17.49235  -17.93367
       O    -8.47588  -16.73609  -17.36646
      H1    -8.07879  -16.92106  -16.50707

