24
frame 1 | Written by MDAnalysis XYZWriter (release 2.4.3)
       H     0.39232  -13.42391    5.61078
       O     0.17383  -12.49927    5.87821
      H1     0.98315  -12.18759    6.26447
       H    -0.01686  -14.98943    4.33123
       O     0.52696  -15.22258    5.10536
      H1     1.35200  -14.95328    4.75193
       H     4.38569  -11.77895    8.43747
       O     3.94608  -12.59237    8.21134
      H1     4.63026  -13.21394    7.78470
       H     0.23892  -10.75453    8.28823
       O    -0.58722  -11.22616    8.35859
      H1    -0.34808  -11.88341    7.69435
       H    -2.74359   -9.23177    6.64648
       O    -1.87719   -8.84298    6.99283
      H1    -1.59080   -9.66633    7.42991
       H    -0.47254  -11.34108    4.62095
       O    -0.28376  -10.63131    3.99045
      H1    -0.48307   -9.81399    4.49477
       H     2.71303  -11.07348    7.50582
       O     2.00094  -10.73948    6.95674
      H1     2.39709  -10.01563    6.42077
       H     1.45142  -10.89286    3.77953
       O     2.40769  -10.97649    3.49334
      H1     2.79440  -11.57572    4.10238

