24
frame 1 | Written by MDAnalysis XYZWriter (release 2.4.3)
       H     2.81476    3.54855    8.42766
       O     3.75078    3.67551    8.29300
      H1     4.13465    3.53488    9.19941
       H     1.47922    4.76637    6.66877
       O     1.05608    4.58042    7.50915
      H1     1.11384    5.39870    7.97190
       H     2.74922   -1.03444   10.25275
       O     3.23218   -0.83549    9.41714
      H1     4.08840   -0.80415    9.84755
       H     5.20404    1.29782    6.81835
       O     4.23534    1.35072    6.63159
      H1     4.07307    2.20125    7.10697
       H    -1.52558    3.15197    9.06510
       O    -1.18255    3.03845    8.12308
      H1    -0.36150    3.59409    8.01148
       H     1.41433    1.36013    8.50458
       O     1.86930    1.77037    9.30346
      H1     2.68882    1.24894    9.26076
       H     1.01851    0.89448   12.38799
       O     1.63375    1.53455   12.09477
      H1     1.67004    1.42880   11.12781
       H    -0.47738    1.72190    7.33310
       O    -0.12911    0.82612    7.09731
      H1    -0.01111    0.76533    6.16449

