24
frame 1 | Written by MDAnalysis XYZWriter (release 2.4.3)
       H   -15.83312   12.50929   17.88839
       O   -15.97561   11.61471   17.50933
      H1   -15.73731   11.07498   18.31360
       H   -18.22013    5.64581   19.45976
       O   -17.42765    6.11456   19.88326
      H1   -17.30546    6.84336   19.30164
       H   -14.38240   12.46218   16.19847
       O   -13.88788   13.07237   15.59753
      H1   -14.54708   13.31851   14.90309
       H   -17.51964    6.40051   14.31238
       O   -17.37616    7.31386   14.61733
      H1   -16.87142    7.76940   13.92909
       H   -17.73582    7.80310   16.56316
       O   -18.19249    8.04389   17.36808
      H1   -18.27643    9.01345   17.33397
       H   -19.78264   11.79606   14.05851
       O   -19.54649   12.41618   14.81951
      H1   -19.23104   11.79695   15.49893
       H   -17.58232   13.88388   15.59808
       O   -17.18342   14.65506   16.01917
      H1   -17.87634   15.37065   16.02408
       H   -17.76319   11.32590   17.69885
       O   -18.52695   10.79837   17.41510
      H1   -19.39629   11.03075   17.80912

