24
frame 1 | Written by MDAnalysis XYZWriter (release 2.4.3)
       H    11.05357   12.03503   15.94136
       O    11.30401   11.83674   16.82263
      H1    11.39401   12.67682   17.22643
       H     9.68766   11.19716   16.98162
       O     8.89443   10.78745   17.31005
      H1     8.93784    9.92633   16.85439
       H    10.68360   15.33188   15.50792
       O    11.14057   14.67734   14.94518
      H1    11.32170   15.32068   14.22000
       H    11.89900   13.76396   19.39645
       O    11.02272   13.67450   18.92107
      H1    10.71781   14.58644   19.02471
       H     9.75762   13.67867   14.63892
       O     9.04606   13.08812   14.40378
      H1     8.44807   13.00690   15.18588
       H     9.81738   10.69171   18.97528
       O    10.11037   10.37723   19.87798
      H1    10.72441   11.04493   20.19358
       H    14.22300   14.86542   15.01124
       O    13.63843   15.12391   15.70198
      H1    12.74137   14.83373   15.40536
       H    12.12113    9.63312   17.14474
       O    12.75841    8.95044   17.17292
      H1    13.48475    9.48998   17.37769

