24
frame 1 | Written by MDAnalysis XYZWriter (release 2.4.3)
       H    12.96906   -4.69844   -2.31300
       O    12.58262   -3.81616   -2.08983
      H1    11.72646   -3.74913   -2.56790
       H    12.51852   -1.32126   -6.27337
       O    12.35659   -1.94152   -5.60952
      H1    11.69505   -2.54299   -6.07389
       H     8.93061   -4.82295   -0.45748
       O     8.53986   -4.28583   -1.14489
      H1     9.25473   -3.99026   -1.74150
       H     6.63367   -5.66635   -2.37548
       O     6.58902   -4.93892   -3.00317
      H1     7.20724   -4.30966   -2.61958
       H     8.05930   -0.97230   -2.23942
       O     8.27503   -1.08880   -3.15723
      H1     9.08866   -0.59445   -3.40964
       H     9.56491   -3.96342   -3.76541
       O    10.04858   -3.33584   -3.16961
      H1     9.58467   -2.46003   -3.02010
       H     9.90717   -8.13743   -5.59807
       O     9.56962   -7.46031   -6.26359
      H1     9.46424   -6.63152   -5.82172
       H     7.96546   -5.07149   -4.53064
       O     8.85666   -5.42336   -4.48373
      H1     8.75265   -5.88079   -3.65325

