24
frame 0 | Written by MDAnalysis XYZWriter (release 2.4.3)
       H    15.80755    5.16525   17.75606
       O    15.24307    4.73528   17.03912
      H1    14.78623    5.44281   16.56439
       H    10.93400    6.59155   17.34240
       O    10.57839    7.50534   17.31347
      H1    11.19037    8.12175   17.61496
       H     9.65488    8.20643   15.77768
       O     9.42608    8.76472   15.05685
      H1     8.61439    8.47831   14.61312
       H    10.24376   10.44904   18.52938
       O    10.38540    9.91773   19.33197
      H1    11.11485   10.37631   19.81559
       H    16.87198   10.67698   17.67419
       O    16.63144    9.79704   17.28850
      H1    15.94049   10.05650   16.67070
       H    14.57662    7.11445   14.91488
       O    13.97513    6.76799   15.55564
      H1    13.80302    7.60316   16.04343
       H    15.61769    9.91615   18.67153
       O    15.07083   10.05966   19.42513
      H1    15.53570   10.33828   20.23906
       H    12.52112    9.48133   17.05086
       O    13.11922    8.81162   17.32872
      H1    13.59140    9.13015   18.09473

