24
frame 0 | Written by MDAnalysis XYZWriter (release 2.4.3)
       H     0.70659   19.15664   12.79603
       O     1.18842   19.46248   13.58755
      H1     1.56531   18.60922   13.93143
       H    -1.47210   15.66171   19.57443
       O    -2.23755   16.16782   19.28034
      H1    -3.06658   15.81308   19.67234
       H     2.55944   13.72940   17.87418
       O     1.84519   14.26211   17.45089
      H1     1.77895   14.99604   18.05198
       H     4.23052   17.93274   17.64747
       O     3.70662   18.23137   16.89144
      H1     3.89919   17.57863   16.22029
       H     0.58409   13.25034   17.13035
       O    -0.10352   12.54179   16.99134
      H1    -0.80339   12.73113   17.63963
       H     0.31633   17.05757   16.67610
       O     0.97075   16.99205   17.39516
      H1     1.81082   17.37011   17.03005
       H    -2.13643   16.91034   16.00765
       O    -1.27433   17.10418   15.64800
      H1    -1.17933   18.02352   15.87066
       H     3.04714   15.43985   14.67092
       O     3.56450   14.90403   15.26768
      H1     3.05040   14.77658   16.06741

