24
frame 2 | Written by MDAnalysis XYZWriter (release 2.4.3)
       H     1.73431  -19.46815   -2.79309
       O     2.51096  -19.46875   -2.23814
      H1     2.31914  -18.92414   -1.46617
       H     6.38508  -15.87491   -1.30692
       O     5.84811  -16.76372   -1.48658
      H1     6.22017  -17.05205   -2.30509
       H     0.73306  -19.44428   -4.68490
       O     0.28062  -19.96745   -4.02555
      H1    -0.39956  -19.42087   -3.56100
       H     2.59531  -17.28304   -2.39052
       O     3.04206  -16.38820   -2.21720
      H1     3.94079  -16.50767   -1.99369
       H     0.77177  -13.86989   -1.32861
       O     1.11639  -14.59566   -0.71955
      H1     1.78330  -15.12504   -1.23385
       H     3.18809  -15.18043   -3.58254
       O     3.32402  -14.71348   -4.38275
      H1     2.55405  -14.13351   -4.42902
       H     1.58892  -17.42957    0.21668
       O     2.39824  -18.02412   -0.01788
      H1     3.21363  -17.46168    0.13760
       H     3.38607  -16.24474   -7.06504
       O     2.68753  -16.27709   -6.41969
      H1     3.05233  -15.78308   -5.70960

