24
frame 1 | Written by MDAnalysis XYZWriter (release 2.4.3)
       H    16.64197   -2.22401  -15.18197
       O    16.78397   -1.89049  -14.28430
      H1    17.52575   -1.24298  -14.21932
       H    16.78651   -3.13183  -12.93825
       O    16.82756   -3.83027  -12.27964
      H1    16.07491   -4.41689  -12.45125
       H    13.93381   -5.39810  -12.66076
       O    14.29062   -5.08429  -13.43177
      H1    13.50842   -4.78390  -14.02615
       H    16.77475   -1.92502  -17.09302
       O    15.88255   -2.19142  -16.86435
      H1    15.97157   -3.17937  -16.73132
       H    13.55224   -4.93942  -18.94765
       O    14.25144   -5.62505  -18.97967
      H1    15.04329   -5.03012  -18.83692
       H    15.50251   -8.34989  -15.19156
       O    15.35608   -9.00048  -14.43508
      H1    15.02216   -9.80617  -14.87582
       H    14.60313   -7.98387  -16.90153
       O    15.38538   -7.53869  -16.73246
      H1    15.16598   -6.59965  -16.88197
       H    17.32050   -4.77294  -16.59810
       O    16.36555   -4.90540  -16.38165
      H1    16.33661   -5.09667  -15.44333

