24
frame 1 | Written by MDAnalysis XYZWriter (release 2.4.3)
       H    -0.17440    3.90944  -18.24322
       O     0.16259    4.19521  -19.17349
      H1     1.05463    4.51348  -19.06594
       H    -5.66389    2.15351  -18.77326
       O    -4.78380    2.29004  -18.46351
      H1    -4.81770    2.03177  -17.54025
       H    -3.83874    5.33001  -18.91675
       O    -3.73820    4.78396  -18.12073
      H1    -3.95570    3.82251  -18.27484
       H    -5.33895   -1.29089  -19.62025
       O    -5.29516   -0.53001  -19.02930
      H1    -4.54227   -0.00947  -19.36408
       H    -2.40404    1.22392  -19.91999
       O    -2.28845    0.25006  -19.86388
      H1    -2.27878    0.01017  -18.92778
       H    -1.41393    0.08762  -16.18378
       O    -1.14194    1.01512  -15.95509
      H1    -0.65998    0.95214  -15.13787
       H    -2.93733    1.67299  -15.84816
       O    -3.81957    1.99407  -15.66616
      H1    -3.73029    2.87606  -15.33505
       H    -1.48205   -2.05552  -17.88637
       O    -1.96544   -1.36575  -17.44733
      H1    -2.64390   -1.86215  -16.92280

