24
frame 1 | Written by MDAnalysis XYZWriter (release 2.4.3)
       H    15.20175   -6.18561    1.93202
       O    14.29586   -6.07979    1.94796
      H1    13.90345   -6.38219    1.14820
       H    12.96906   -4.69844   -2.31300
       O    12.58262   -3.81616   -2.08983
      H1    11.72646   -3.74913   -2.56790
       H    18.33153   -4.18845   -1.00059
       O    17.79665   -4.14420   -1.78474
      H1    17.32753   -3.30136   -1.68325
       H    14.78350   -3.92783    0.85752
       O    14.72524   -2.92158    0.90977
      H1    15.13346   -2.68761    0.08463
       H    12.62686   -4.00007    2.21049
       O    12.00427   -3.32585    2.51333
      H1    11.40261   -3.67601    3.18476
       H    12.46644   -5.40643   -0.59499
       O    12.71430   -6.30555   -0.40229
      H1    12.86598   -6.79084   -1.27419
       H    15.42876   -1.30576    2.28862
       O    15.03598   -0.60282    2.85569
      H1    14.10751   -0.82676    2.85364
       H    17.91213   -1.13473    1.56826
       O    17.60709   -1.78962    2.22453
      H1    18.36556   -2.33108    2.47917

