24
frame 1 | Written by MDAnalysis XYZWriter (release 2.4.3)
       H   -14.32889   -0.42503   15.02125
       O   -13.36338   -0.50372   15.03332
      H1   -13.26977   -1.06872   14.24577
       H   -16.39049   -3.35172   12.40048
       O   -16.61816   -2.51745   11.98876
      H1   -17.53839   -2.42597   11.89046
       H   -13.49485   -4.31551    9.83380
       O   -13.29818   -5.23692    9.87462
      H1   -13.42013   -5.50149    8.98676
       H   -13.64633   -2.77041   11.54876
       O   -14.08695   -2.91271   10.67160
      H1   -15.03751   -2.70203   10.90312
       H   -12.79723   -3.19355   13.54791
       O   -12.80438   -2.33477   13.13694
      H1   -11.94021   -2.23607   12.65927
       H   -10.08139   -2.23787   11.49283
       O   -10.80559   -1.71283   11.27453
      H1   -10.47278   -0.83209   11.42822
       H   -13.95414   -4.98097   14.77067
       O   -13.69546   -5.14990   13.84676
      H1   -14.55947   -5.26191   13.40485
       H   -10.90676   -2.71021    9.65985
       O   -10.80779   -2.89140    8.72719
      H1    -9.85321   -2.94127    8.56110

