24
frame 1 | Written by MDAnalysis XYZWriter (release 2.4.3)
       H   -10.30454  -16.75407   -3.08559
       O    -9.79082  -16.09313   -3.54021
      H1    -9.23254  -16.58027   -4.13379
       H    -9.29544  -14.78292   -2.24378
       O    -8.83951  -14.04605   -1.86838
      H1    -9.39548  -13.62825   -1.24839
       H   -12.33640  -11.51576   -3.02902
       O   -11.83145  -12.22892   -3.39775
      H1   -11.03109  -11.79485   -3.63474
       H   -12.68068  -14.05489   -0.70607
       O   -12.91945  -13.50445    0.07386
      H1   -13.52541  -14.06152    0.51412
       H   -12.26082  -14.88123   -5.49141
       O   -11.97040  -15.80265   -5.21205
      H1   -11.08223  -15.72888   -4.86806
       H   -12.45905  -17.54058   -1.39385
       O   -11.98334  -17.35856   -2.24655
      H1   -12.38049  -17.87906   -2.95801
       H   -14.33553  -14.72676   -2.88484
       O   -15.12984  -15.18071   -3.18205
      H1   -15.18254  -15.94069   -2.54318
       H   -12.27860  -13.91774   -2.72262
       O   -12.59414  -14.67709   -2.25506
      H1   -12.32351  -15.47956   -2.70225

