24
frame 2 | Written by MDAnalysis XYZWriter (release 2.4.3)
       H    19.77307   -4.37028   15.99675
       O    19.78885   -3.56608   16.50174
      H1    19.06539   -3.06975   16.08811
       H    15.50776   -7.69228   14.13996
       O    15.97453   -7.23411   13.39932
      H1    16.12518   -6.33504   13.76267
       H    17.80007   -9.59369   14.27939
       O    17.94533  -10.19067   13.55747
      H1    17.29849   -9.99314   12.80066
       H    17.69320   -6.67152   15.69116
       O    17.33930   -5.82199   16.01409
      H1    17.91739   -5.53649   16.71100
       H    18.55659   -7.25202   11.08570
       O    18.45760   -6.49999   11.69222
      H1    17.91505   -6.74723   12.45942
       H    18.88290   -7.52608   14.82053
       O    18.39253   -8.15526   15.29502
      H1    18.74655   -8.27393   16.21465
       H    16.88350   -4.80081   14.71941
       O    16.53957   -4.65970   13.79628
      H1    16.64604   -3.74689   13.53389
       H    19.48582   -6.31706   17.99028
       O    18.82246   -5.78785   18.48506
      H1    18.49557   -6.27121   19.28651

