24
frame 2 | Written by MDAnalysis XYZWriter (release 2.4.3)
       H     2.06689   19.68145    0.51946
       O     2.07867   18.69679    0.60120
      H1     1.23070   18.44842    0.17278
       H     3.38587   19.65159    4.96630
       O     3.29298   18.71857    4.71040
      H1     4.06871   18.48583    4.20092
       H     4.02943   14.51964    0.47625
       O     4.05927   15.32485   -0.09303
      H1     4.27822   16.07347    0.53614
       H     6.02678   18.17352   -1.65514
       O     5.71000   19.08480   -1.29434
      H1     4.96599   19.39032   -1.87479
       H     9.41642   19.32474    3.49262
       O     8.51115   19.27865    3.19014
      H1     7.91563   19.16794    3.92227
       H     5.39229   15.18639    2.83237
       O     6.24359   14.80369    3.16462
      H1     6.14510   14.71135    4.11064
       H     6.34133   19.11740    0.38593
       O     6.33368   19.28136    1.34520
      H1     7.21359   19.38477    1.70396
       H     5.07397   18.21235    1.98275
       O     4.36569   17.54130    2.08198
      H1     3.54435   17.99558    1.81423

