24
frame 3 | Written by MDAnalysis XYZWriter (release 2.4.3)
       H     7.87438   -2.03394   11.16816
       O     7.58057   -1.51836   10.42295
      H1     7.09903   -2.24462    9.98473
       H     7.37550   -6.38660    5.16606
       O     8.02235   -6.81955    5.73717
      H1     7.87966   -7.73781    5.64096
       H     5.46199   -3.68675    8.60457
       O     6.20537   -3.87283    9.21697
      H1     5.92735   -4.49902    9.92002
       H     3.95837   -2.86168    7.36353
       O     4.46514   -3.71916    7.36858
      H1     3.79635   -4.38100    7.60015
       H     7.35794   -4.97250    8.32047
       O     8.21025   -5.29027    8.03548
      H1     7.96770   -5.85746    7.34589
       H     8.51585   -6.51847   12.91026
       O     7.97496   -6.21587   12.10048
      H1     8.58301   -6.34639   11.35242
       H     8.86234   -4.00012    6.46103
       O     9.37493   -3.34105    6.01548
      H1     9.75973   -3.78820    5.23309
       H     9.34308   -3.98979    9.25594
       O     9.90154   -4.09437   10.04588
      H1     9.49169   -3.55927   10.81667

