24
frame 2 | Written by MDAnalysis XYZWriter (release 2.4.3)
       H    -8.13690   -8.05894  -17.15499
       O    -8.27744   -8.87842  -17.65872
      H1    -7.97509   -8.59947  -18.52181
       H    -4.75844  -11.55984  -15.73784
       O    -4.25963  -12.37374  -15.37962
      H1    -3.78703  -12.83481  -16.12569
       H    -1.98226  -11.48948  -18.43003
       O    -1.10001  -11.70082  -18.12265
      H1    -0.57805  -11.80815  -18.89333
       H    -4.91273   -9.36726  -15.09062
       O    -5.47859   -9.89132  -15.71013
      H1    -6.22741   -9.26760  -15.68602
       H    -5.18584  -15.30110  -15.57700
       O    -6.03043  -14.95083  -15.70698
      H1    -5.90153  -14.03113  -15.43997
       H    -4.16859  -10.50389  -18.10108
       O    -3.37724  -10.01139  -17.81602
      H1    -3.67437   -9.86587  -16.87768
       H    -5.82646  -12.12692  -19.09893
       O    -5.97553  -11.37742  -18.51308
      H1    -6.18054  -10.60530  -19.08813
       H    -7.63411  -11.73678  -17.61572
       O    -8.37161  -11.47140  -17.06964
      H1    -8.33314  -10.48302  -17.21287

