24
frame 3 | Written by MDAnalysis XYZWriter (release 2.4.3)
       H     4.26126   13.36307   17.23200
       O     3.56179   13.09473   17.83976
      H1     3.75161   13.59008   18.66801
       H     6.01782   13.12102   15.18702
       O     6.96953   13.29900   15.33168
      H1     7.27221   12.55534   15.88726
       H    10.14093   13.71041   16.44625
       O     9.87240   13.49498   17.38392
      H1    10.14334   14.24952   17.95037
       H     8.98445   12.10003   17.08496
       O     8.31596   11.45444   16.77708
      H1     8.67991   10.93549   16.05675
       H    11.30777   16.24656   19.27537
       O    10.54647   15.66006   18.98774
      H1    10.02146   16.23556   18.35732
       H     4.16497   16.97515   15.46630
       O     4.86026   17.13776   16.14064
      H1     5.33030   16.32310   16.34168
       H     6.52046   14.46063   16.53168
       O     6.23303   15.02663   17.23873
      H1     6.53276   14.53467   18.03407
       H     8.77358   17.33628   17.03041
       O     8.55133   16.90063   17.84837
      H1     7.76133   16.35280   17.63295

