24
frame 2 | Written by MDAnalysis XYZWriter (release 2.4.3)
       H   -15.42119   12.66123   17.76273
       O   -15.48923   11.73933   17.47884
      H1   -15.42997   11.23020   18.32410
       H   -14.73557   11.83951   15.81803
       O   -14.11613   11.89749   15.09259
      H1   -14.23202   12.74660   14.72632
       H   -11.36226   10.97731   16.16383
       O   -11.07276   11.70969   15.55997
      H1   -11.85363   11.99705   15.14493
       H   -14.14928    9.90055   15.70374
       O   -13.96434    8.98699   15.54727
      H1   -14.04483    8.64757   16.46920
       H   -14.29863    6.37955   16.92870
       O   -13.69849    6.79583   17.61604
      H1   -12.85920    6.76531   17.15849
       H   -12.84318    8.29394   14.26194
       O   -12.19383    7.97494   13.62420
      H1   -11.50087    8.68988   13.61263
       H   -15.99948    6.30047   15.21795
       O   -15.54806    5.62691   15.70726
      H1   -15.95050    4.79948   15.44019
       H   -11.43919    8.86112   17.26898
       O   -10.99277    9.66557   17.61457
      H1   -10.12656    9.34882   17.84808

