24
frame 2 | Written by MDAnalysis XYZWriter (release 2.4.3)
       H    17.94986   16.87291   -7.75270
       O    17.03145   16.62061   -7.73076
      H1    17.15570   15.82828   -7.19203
       H    12.23995   19.92612   -6.65034
       O    12.93325   19.22967   -6.85315
      H1    12.32027   18.45798   -6.99426
       H    15.79152   18.31642  -11.10204
       O    15.30036   19.10756  -10.83182
      H1    14.39694   18.75993  -10.91751
       H    17.37919   19.49720   -4.73716
       O    18.27143   19.14983   -4.38195
      H1    18.73338   19.84049   -3.94416
       H    15.46163   18.87552   -9.02461
       O    15.67907   18.96390   -8.07834
      H1    16.25814   18.17341   -7.97887
       H    14.50220   15.50351   -9.82108
       O    15.36778   15.13512   -9.73422
      H1    15.66740   15.48325   -8.89361
       H    14.05340   16.91515   -5.91668
       O    13.94704   16.58813   -5.01946
      H1    13.13905   16.03288   -5.10172
       H    15.73518   19.55426   -6.35224
       O    15.83581   19.78386   -5.40559
      H1    15.12447   19.24246   -4.91034

