24
frame 2 | Written by MDAnalysis XYZWriter (release 2.4.3)
       H   -15.83529    0.29906  -13.27752
       O   -15.34036    1.13346  -13.12224
      H1   -14.96689    1.46878  -13.97197
       H   -13.34415    1.79197  -14.78370
       O   -14.03871    2.32619  -15.22273
      H1   -14.34502    3.16854  -14.83577
       H   -16.01633    0.56505  -17.76977
       O   -15.33962    0.47766  -17.13780
      H1   -15.00998    1.33613  -16.85691
       H   -17.17115    1.10517  -19.25541
       O   -17.39412    0.25851  -18.81617
      H1   -17.05270   -0.49850  -19.35067
       H   -18.33469    0.19126  -17.38697
       O   -19.11739    0.29848  -16.85553
      H1   -19.78911   -0.10773  -17.39834
       H   -15.74874   -0.70277  -15.84539
       O   -16.10895   -1.45187  -15.28878
      H1   -16.83334   -1.87528  -15.76114
       H   -14.27734   -1.99872  -15.66518
       O   -13.37395   -2.26474  -15.90908
      H1   -12.89502   -2.37419  -15.10308
       H   -14.03975    4.66843  -17.74080
       O   -13.29696    4.67452  -17.09815
      H1   -13.62051    4.00564  -16.44199

