24
frame 2 | Written by MDAnalysis XYZWriter (release 2.4.3)
       H    16.01230    8.38782   -7.00148
       O    15.98260    9.30293   -7.34758
      H1    15.33205    9.76127   -6.81579
       H    17.79852   13.65254   -6.97219
       O    17.19034   14.07917   -6.35164
      H1    16.47156   13.38979   -6.27210
       H    15.06432    9.91818   -4.10978
       O    15.59321   10.73480   -4.24773
      H1    15.68773   11.12757   -3.37842
       H    13.36327   12.36100   -9.42122
       O    14.07161   12.19275   -8.83098
      H1    14.78235   12.78167   -9.09516
       H    18.65303   11.35344   -6.50163
       O    18.18587   11.21300   -7.33072
      H1    17.54983   10.49874   -7.18739
       H    15.01935   11.80811   -5.47720
       O    14.94328   12.53918   -6.10187
      H1    14.59970   12.16499   -6.94745
       H    12.76467    9.56547   -5.11610
       O    13.37707    9.35052   -5.80995
      H1    13.67756    8.47716   -5.64208
       H    13.15309   12.94414   -5.04977
       O    12.44508   13.58728   -5.06173
      H1    12.09442   13.69884   -4.13472

