24
frame 2 | Written by MDAnalysis XYZWriter (release 2.4.3)
       H    16.64950  -16.51818   12.54090
       O    17.06738  -16.82587   11.70903
      H1    17.98208  -17.03405   11.93803
       H    13.73690  -13.33617    9.85377
       O    13.63694  -12.48107    9.46798
      H1    12.76943  -12.43586    9.05529
       H    14.43164  -14.03240   14.51624
       O    13.68495  -13.68642   14.09378
      H1    14.11148  -13.10083   13.42449
       H    14.64889  -15.03962   11.08883
       O    15.26541  -14.38961   10.76360
      H1    16.05566  -14.95432   10.45858
       H    13.72270  -10.78483   12.34856
       O    13.39828  -11.60518   11.99987
      H1    13.69604  -11.70658   11.05777
       H    12.86297  -16.61199   12.98744
       O    13.64132  -16.06643   12.72525
      H1    13.45498  -15.19927   13.13706
       H    17.92766  -14.76683    9.65137
       O    17.64211  -15.65265    9.46847
      H1    17.44335  -16.03748   10.37641
       H    15.76443  -11.24209   11.20975
       O    16.20059  -10.37189   11.29306
      H1    16.12270   -9.97367   10.41303

