24
frame 2 | Written by MDAnalysis XYZWriter (release 2.4.3)
       H    -8.43214  -14.36783   16.36944
       O    -7.73845  -14.84377   15.86184
      H1    -7.56433  -14.23809   15.15289
       H   -12.70041  -17.93462   19.34423
       O   -12.81043  -18.88919   19.04405
      H1   -12.73627  -18.83982   18.01516
       H    -8.32780  -17.79974   13.88723
       O    -7.63566  -17.29323   13.45833
      H1    -7.93705  -17.35055   12.57161
       H    -8.37985  -16.63383   18.50129
       O    -7.71829  -16.96074   17.82927
      H1    -7.60274  -16.30822   17.19249
       H    -6.27844  -18.90669   18.36642
       O    -6.52372  -19.86020   18.37893
      H1    -5.90503  -20.14641   19.10032
       H    -8.79520  -20.12709   16.20249
       O    -8.95917  -19.22928   16.34513
      H1    -8.39060  -18.98085   17.05820
       H   -10.82761  -16.33239   15.90575
       O   -10.82604  -16.87958   16.67958
      H1    -9.92609  -17.24307   16.84870
       H   -13.66304  -18.04648   16.10774
       O   -13.00875  -18.75822   16.35460
      H1   -12.14784  -18.27437   16.42585

