24
frame 2 | Written by MDAnalysis XYZWriter (release 2.4.3)
       H    14.54830  -17.11311   14.07776
       O    14.34718  -17.48030   14.95603
      H1    13.73493  -16.83913   15.34666
       H    12.27413  -12.97486   15.38791
       O    11.55184  -12.98800   16.05551
      H1    10.82499  -13.25803   15.52341
       H    13.73121  -11.39512   14.92787
       O    13.28052  -10.55919   14.73344
      H1    12.64735  -10.85998   14.07596
       H    15.56817  -13.10156   17.20425
       O    15.31693  -12.36911   16.68631
      H1    15.28214  -11.67504   17.31848
       H    14.43164  -14.03240   14.51624
       O    13.68495  -13.68642   14.09378
      H1    14.11148  -13.10083   13.42449
       H    11.92057  -16.17443   17.21469
       O    12.44978  -15.79394   16.45253
      H1    11.95490  -15.02403   16.23783
       H    12.86297  -16.61199   12.98744
       O    13.64132  -16.06643   12.72525
      H1    13.45498  -15.19927   13.13706
       H    16.89918  -13.90111   14.81221
       O    16.16435  -14.57192   14.86837
      H1    16.37076  -15.02002   15.71332

