24
frame 3 | Written by MDAnalysis XYZWriter (release 2.4.3)
       H   -17.53032   -2.14820  -12.21901
       O   -16.87214   -1.57394  -12.62697
      H1   -16.75252   -1.80771  -13.56541
       H   -18.00407    1.11559  -15.03063
       O   -18.15942    1.70278  -14.26467
      H1   -17.68411    2.47011  -14.68872
       H   -15.69664    0.01189  -13.05908
       O   -14.82788    0.44963  -12.95364
      H1   -14.12858    0.03234  -13.47219
       H   -16.08790    0.61588  -17.67938
       O   -15.46497   -0.00863  -17.21392
      H1   -14.88815    0.62767  -16.80214
       H   -19.76358   -2.74965  -15.89291
       O   -19.12039   -2.59704  -16.62470
      H1   -19.28268   -1.70006  -16.97707
       H   -16.26431   -0.94384  -16.17759
       O   -16.60469   -1.58323  -15.45851
      H1   -17.29289   -2.18587  -15.79302
       H   -17.79460   -4.68443  -16.73081
       O   -17.42896   -4.97132  -17.57381
      H1   -16.70609   -5.55704  -17.32219
       H   -14.95829   -2.49061  -15.01920
       O   -14.09644   -2.84833  -15.11461
      H1   -13.76147   -3.07362  -14.23346

