24
frame 0 | Written by MDAnalysis XYZWriter (release 2.4.3)
       H   -14.75862   15.98610   14.53483
       O   -15.39545   15.39494   14.09746
      H1   -16.21172   15.53541   14.62962
       H   -14.52348   18.70808   13.18885
       O   -14.72566   19.65311   13.06129
      H1   -13.89956   20.13802   13.18582
       H   -13.22447   17.61517   15.35846
       O   -13.33147   17.13556   14.52690
      H1   -12.79583   16.33882   14.60147
       H   -18.64109   13.97015   14.72329
       O   -18.40240   14.91788   14.80167
      H1   -18.84838   15.32082   15.61604
       H   -15.76039   16.43593   12.83905
       O   -15.84918   17.12780   12.16656
      H1   -15.02982   17.35338   11.64892
       H   -19.02665   15.86818   13.15853
       O   -19.20354   15.88138   12.17353
      H1   -19.38299   16.83513   12.11308
       H   -16.47794   15.02471   17.48585
       O   -17.08643   14.54005   18.09971
      H1   -17.95682   14.84063   17.77850
       H   -17.78901   15.60079    9.71521
       O   -17.22038   16.33393    9.71852
      H1   -16.83200   16.36599   10.59974

