24
frame 2 | Written by MDAnalysis XYZWriter (release 2.4.3)
       H    -5.91793   14.02785  -15.31567
       O    -5.33893   13.93044  -16.04717
      H1    -5.15575   14.87334  -16.30560
       H    -2.99242   17.54258  -13.71739
       O    -2.81220   18.44903  -13.92009
      H1    -2.36954   18.42282  -14.80366
       H     0.48627   15.24777  -13.01816
       O    -0.33957   15.61906  -13.23071
      H1    -0.23018   15.69941  -14.18221
       H    -4.28957   16.81496  -17.97872
       O    -3.86940   16.01465  -17.83388
      H1    -4.37486   15.26966  -18.16639
       H    -1.47732   18.40907  -17.21295
       O    -1.71435   18.06691  -16.33781
      H1    -1.70939   17.12199  -16.37254
       H    -1.99467   12.51771  -17.65279
       O    -1.58924   12.86174  -16.84205
      H1    -2.03225   13.75569  -16.70117
       H    -3.20310   15.70467  -16.10662
       O    -2.41564   15.53369  -15.60096
      H1    -2.69984   15.42350  -14.67045
       H    -2.00789   16.00205  -12.75565
       O    -2.95211   15.94488  -13.00933
      H1    -3.55568   15.92860  -12.24383

