24
frame 3 | Written by MDAnalysis XYZWriter (release 2.4.3)
       H   -11.62253   -7.60495   17.89701
       O   -12.42421   -8.01361   18.21232
      H1   -12.75430   -7.64922   19.01014
       H   -13.46250  -10.78103   16.74120
       O   -12.96985  -11.59573   16.90806
      H1   -12.39127  -11.31086   17.60428
       H   -18.21663   -9.62560   17.12724
       O   -19.08340   -9.21808   17.17623
      H1   -19.64174   -9.91694   17.60825
       H   -14.53155   -6.27196   19.23048
       O   -15.35281   -6.67950   18.87941
      H1   -15.94577   -5.91260   18.75087
       H   -13.51890   -6.77355   16.78244
       O   -14.07154   -6.15195   16.25410
      H1   -15.04824   -6.32536   16.42486
       H   -16.61456   -7.18444   15.42054
       O   -16.67337   -6.38909   16.02786
      H1   -16.91153   -6.69161   16.88118
       H   -15.98976   -9.50805   17.86192
       O   -15.81452   -9.38887   18.76916
      H1   -15.72416   -8.44693   18.80270
       H   -16.27560  -11.32298   16.50275
       O   -16.70843  -10.44549   16.40603
      H1   -16.69918  -10.24433   15.40175

