24
frame 3 | Written by MDAnalysis XYZWriter (release 2.4.3)
       H   -11.56766  -12.74079  -16.97986
       O   -12.17653  -13.13070  -16.26024
      H1   -11.48015  -13.71148  -15.86824
       H   -15.23679  -14.47647  -17.62857
       O   -15.34000  -14.98454  -18.42605
      H1   -14.48237  -15.24536  -18.81218
       H   -16.96062  -12.33585  -16.24568
       O   -17.43493  -12.98045  -15.64456
      H1   -17.50346  -12.36731  -14.91812
       H   -16.60793  -10.90061  -17.55927
       O   -16.29274  -10.81838  -16.65368
      H1   -16.93164  -10.28459  -16.17897
       H   -14.11824  -13.42454  -15.75692
       O   -14.93281  -13.94297  -15.56999
      H1   -15.58163  -13.30101  -15.25929
       H   -16.49847  -16.90249  -16.27626
       O   -15.86332  -17.45836  -16.78027
      H1   -15.42017  -16.72684  -17.23323
       H   -15.23064  -13.98206  -12.18045
       O   -15.64386  -14.70501  -12.75940
      H1   -15.43181  -14.55538  -13.68561
       H   -14.39707  -17.60373  -13.50425
       O   -14.08590  -16.91063  -12.93159
      H1   -14.75241  -16.23293  -12.90051

