24
frame 3 | Written by MDAnalysis XYZWriter (release 2.4.3)
       H    13.69275  -18.76373   -1.36957
       O    13.52682  -17.86690   -1.02301
      H1    13.39192  -18.09480   -0.08567
       H    17.57653  -19.38943   -4.96698
       O    18.55142  -19.38046   -5.06686
      H1    18.93665  -18.67495   -4.44055
       H    16.76609  -14.59644   -2.47717
       O    17.02171  -13.74095   -2.16985
      H1    16.49294  -13.07501   -2.62759
       H    16.68965  -16.06189    0.95078
       O    15.76663  -15.91170    1.27318
      H1    15.81419  -15.85102    2.25194
       H    15.78659  -17.96785    1.40751
       O    15.73923  -18.87181    1.81141
      H1    16.11228  -19.49660    1.10588
       H    19.39518  -16.63515    0.76198
       O    18.49487  -17.02909    0.78142
      H1    18.44054  -17.40966   -0.12523
       H    15.45178  -16.73368   -3.49274
       O    16.04620  -16.67989   -2.74444
      H1    15.44603  -16.97772   -2.02086
       H    17.18856  -18.02225   -2.12167
       O    17.77917  -18.35745   -1.41531
      H1    17.57144  -19.27669   -1.12259

