24
frame 2 | Written by MDAnalysis XYZWriter (release 2.4.3)
       H     9.06793  -15.27113  -17.14049
       O     9.84530  -15.19615  -16.58129
      H1    10.29767  -14.45426  -16.97732
       H     6.07851  -12.36165  -15.52642
       O     6.59878  -13.04941  -16.03195
      H1     6.37690  -13.87217  -15.53469
       H    11.23845  -12.63945  -17.36362
       O    10.67269  -13.06294  -18.03320
      H1     9.80403  -12.69631  -18.12461
       H     9.97010  -10.23889  -13.88741
       O    10.10220  -10.24633  -14.89206
      H1     9.23469  -10.38810  -15.28548
       H     3.99435  -13.29701  -18.95672
       O     4.46096  -14.06269  -18.47686
      H1     4.68522  -13.63432  -17.65668
       H     7.62261   -8.93983  -17.46235
       O     8.36989   -9.56167  -17.30162
      H1     9.13336   -9.03644  -17.11190
       H     8.50439  -11.32182  -18.21394
       O     8.12279  -12.19426  -18.46572
      H1     7.60616  -12.53815  -17.72154
       H     8.38253  -16.65116  -18.94572
       O     7.67392  -16.13543  -18.55113
      H1     7.18608  -15.77527  -19.32229

