24
frame 3 | Written by MDAnalysis XYZWriter (release 2.4.3)
       H    17.85651   16.10555  -12.56346
       O    17.41131   16.59486  -11.79647
      H1    17.00822   15.84769  -11.35283
       H    16.20339   12.53283  -12.16175
       O    17.12261   12.71688  -12.36880
      H1    17.61788   12.62249  -11.55025
       H    15.99022   18.14750  -11.98710
       O    15.81586   19.09600  -11.94848
      H1    14.86091   19.12804  -11.81053
       H    17.85148   19.62705  -12.91672
       O    18.66228   19.16858  -13.07207
      H1    18.59597   18.53477  -12.37345
       H    16.37306   18.65465   -9.94000
       O    16.75859   18.94402   -9.04526
      H1    16.91969   18.12656   -8.52807
       H    15.41308   15.51422   -9.72515
       O    16.25085   15.12107   -9.68073
      H1    16.55849   15.45254   -8.82164
       H    18.69898   15.55664  -10.13676
       O    19.50520   15.01982  -10.25647
      H1    20.08033   15.37632   -9.56636
       H    19.55822   16.14228  -14.14771
       O    18.63930   15.89326  -14.13780
      H1    18.48135   14.97618  -14.37875

