24
frame 3 | Written by MDAnalysis XYZWriter (release 2.4.3)
       H     5.60601    4.73550   18.96231
       O     5.17313    5.60951   19.07462
      H1     4.48649    5.76084   18.43209
       H     4.16810   -0.50055   16.82156
       O     4.23713   -0.66422   15.87232
      H1     5.19479   -0.93680   15.83614
       H     8.73468    4.32649   19.24239
       O     9.35827    3.64512   18.89286
      H1    10.21076    4.06725   18.72060
       H     2.41742    1.92587   19.51984
       O     2.73520    1.76548   18.66004
      H1     3.64556    2.12264   18.61096
       H     1.07694    2.64413   16.05564
       O     2.02385    2.77950   16.13895
      H1     2.27083    2.45755   17.09393
       H     5.91813    2.03751   18.06714
       O     5.36116    2.63789   18.56987
      H1     5.70823    2.48170   19.44785
       H     6.60827    6.47438   18.66339
       O     7.34847    7.01539   18.31334
      H1     7.56190    6.67469   17.42801
       H     4.91615   -2.43659   20.00686
       O     5.11771   -2.44398   19.10295
      H1     5.89676   -1.86804   19.00261

