24
frame 3 | Written by MDAnalysis XYZWriter (release 2.4.3)
       H    -4.37491  -18.61931  -14.19023
       O    -4.04566  -17.86660  -14.61910
      H1    -3.33622  -17.47466  -14.07546
       H    -7.06398  -17.25897  -12.03425
       O    -7.03383  -16.29077  -11.99483
      H1    -6.70759  -16.03253  -12.82724
       H    -5.37923  -16.13237   -7.40112
       O    -6.11380  -16.76222   -7.60910
      H1    -6.69782  -16.30143   -8.26341
       H   -10.11812  -19.17690   -9.04563
       O    -9.55290  -18.89398   -8.27514
      H1    -8.65993  -19.23527   -8.46971
       H    -5.98080  -19.26563  -10.84560
       O    -6.66174  -19.13488  -11.54821
      H1    -7.45457  -19.71470  -11.50896
       H    -7.80613  -15.58049  -10.43599
       O    -7.60119  -15.53112   -9.50242
      H1    -8.45368  -15.86685   -9.09164
       H   -10.77882  -17.39606  -12.87003
       O   -10.17724  -18.12683  -12.59392
      H1    -9.32813  -17.67831  -12.64209
       H    -3.59015  -16.95515  -10.09873
       O    -4.30938  -17.54824   -9.90037
      H1    -4.97546  -17.06036   -9.37492

