24
frame 3 | Written by MDAnalysis XYZWriter (release 2.4.3)
       H    18.61201   -4.51572   11.56463
       O    19.08048   -4.09594   10.81489
      H1    19.33653   -3.25989   11.17931
       H    15.30813   -7.38256   13.45865
       O    15.85239   -6.87101   12.78714
      H1    15.68514   -5.93604   13.01287
       H    19.63301   -8.48909    7.47192
       O    19.06782   -7.88295    7.96642
      H1    19.12195   -6.97169    7.60393
       H    17.46078   -9.63124   14.21290
       O    17.42718  -10.57870   13.93094
      H1    16.69282  -10.57304   13.35470
       H    18.67334   -7.51899   11.59369
       O    18.55828   -6.94808   12.35995
      H1    17.59078   -6.86825   12.50522
       H    18.90106   -7.85557   14.49102
       O    18.58484   -8.07332   15.38031
      H1    19.36825   -8.48314   15.81871
       H    16.99180  -10.38575   11.10710
       O    16.12832  -10.85606   11.23330
      H1    15.45783  -10.23000   11.00170
       H    19.50088   -8.40414    9.58136
       O    19.48056   -8.92681   10.44418
      H1    19.79552   -9.81469   10.09679

