24
frame 0 | Written by MDAnalysis XYZWriter (release 2.4.3)
       H   -15.75084  -13.80782    8.57393
       O   -15.68414  -13.93624    7.62819
      H1   -15.67845  -13.03334    7.26725
       H   -17.69841  -10.54162   10.55703
       O   -17.49722  -11.27124   11.15353
      H1   -18.12638  -11.25788   11.89438
       H   -14.40791   -8.98513    7.45707
       O   -14.94279   -9.15423    8.22591
      H1   -15.11174   -8.26861    8.54693
       H   -12.84932  -11.12271    9.99125
       O   -12.12453  -11.59649   10.48050
      H1   -12.49642  -12.46410   10.72876
       H   -14.60663  -11.53522   13.03583
       O   -14.96842  -10.85829   12.41427
      H1   -15.89241  -11.08749   12.10527
       H   -14.76196  -11.67648   10.51070
       O   -14.89650  -11.61814    9.52383
      H1   -14.63943  -10.73919    9.23123
       H   -13.98526  -13.79660    7.32618
       O   -13.09382  -14.09987    7.10165
      H1   -13.26746  -14.84228    6.51694
       H   -16.88403  -11.09890    6.06714
       O   -16.02613  -11.45278    6.22442
      H1   -15.47995  -10.74326    6.66066

