24
frame 4 | Written by MDAnalysis XYZWriter (release 2.4.3)
       H     3.82075  -19.80798    7.71655
       O     3.74940  -19.08813    8.33133
      H1     3.85478  -18.23128    7.95806
       H     3.14521  -16.15449    7.19235
       O     3.48261  -16.26128    8.05090
      H1     2.69023  -16.01942    8.59620
       H    -0.17199  -18.83644    7.29856
       O     0.05645  -17.87081    7.45895
      H1    -0.36059  -17.48174    8.22517
       H     2.73003  -18.72994   11.65274
       O     2.94305  -18.14332   10.88613
      H1     2.74350  -18.57167   10.08850
       H     0.89470  -17.04608    6.26866
       O     1.41524  -16.52132    5.64000
      H1     0.93442  -15.68848    5.68444
       H     1.29066  -15.42417   10.66671
       O     0.96515  -16.13984   10.06917
      H1     1.33823  -16.91309   10.53634
       H     8.26331  -18.35458    6.58512
       O     7.61890  -18.30554    5.85286
      H1     6.96795  -19.06140    5.93493
       H     5.69275  -19.02428   11.75902
       O     6.07597  -19.15044   10.89063
      H1     5.27008  -19.13437   10.32298

