24
frame 3 | Written by MDAnalysis XYZWriter (release 2.4.3)
       H    -9.02596   -4.55634  -16.33833
       O    -9.45735   -5.26599  -16.86849
      H1    -9.84623   -4.87015  -17.64974
       H    -9.12144   -0.09855  -16.67936
       O    -9.73659   -0.76461  -16.90239
      H1   -10.52911   -0.30375  -17.24972
       H   -11.04027   -3.47683  -19.50377
       O   -10.77807   -4.38645  -19.39001
      H1    -9.93411   -4.62696  -19.86141
       H    -8.45821   -1.08676  -18.85492
       O    -8.62435   -1.50119  -19.71525
      H1    -8.11756   -2.37311  -19.63857
       H    -9.38534   -2.50130  -15.94033
       O    -8.76897   -2.99275  -15.35183
      H1    -9.30611   -3.11105  -14.55052
       H    -4.96132   -1.76853  -18.69766
       O    -4.84859   -1.23253  -17.89758
      H1    -4.72630   -0.33625  -18.17492
       H    -6.07872    0.55164  -16.93521
       O    -6.78932    1.18249  -17.16756
      H1    -6.50918    2.04731  -16.80813
       H    -5.42494   -5.74194  -18.25760
       O    -6.13506   -6.22662  -18.73101
      H1    -5.75325   -6.78568  -19.40054

