24
frame 3 | Written by MDAnalysis XYZWriter (release 2.4.3)
       H   -16.81575   -4.92136   -6.32932
       O   -17.53788   -5.21773   -5.74818
      H1   -18.02887   -4.37906   -5.48257
       H   -12.91616   -6.49236   -9.57514
       O   -13.63568   -5.91006   -9.23752
      H1   -13.24333   -5.05855   -9.46709
       H   -14.72270   -5.46604   -3.69823
       O   -15.58736   -5.14239   -3.70119
      H1   -16.01591   -5.42159   -4.47266
       H   -15.61631   -1.38210   -8.44880
       O   -15.01273   -2.13720   -8.47132
      H1   -14.74085   -2.12534   -9.39046
       H   -15.66205   -3.62352   -4.14685
       O   -15.86879   -2.70317   -4.28404
      H1   -15.01746   -2.31097   -4.59538
       H   -14.58634   -5.16967   -7.38708
       O   -14.81790   -4.54750   -6.65681
      H1   -14.89930   -3.66406   -7.11657
       H   -13.11768   -6.40664   -7.77398
       O   -12.92262   -6.78636   -6.91472
      H1   -12.45805   -6.05617   -6.42022
       H   -13.27343   -4.32978   -5.62140
       O   -12.37938   -4.37187   -5.27148
      H1   -11.95042   -3.58114   -5.55269

