24
frame 3 | Written by MDAnalysis XYZWriter (release 2.4.3)
       H    -7.11232   17.37512  -18.48175
       O    -7.05719   18.16883  -17.94153
      H1    -7.25951   18.94565  -18.50337
       H    -9.20471   18.52870  -12.59201
       O    -8.67059   18.32134  -11.79680
      H1    -8.19375   17.50167  -12.03060
       H    -8.25998   17.67155  -16.34504
       O    -8.47391   17.09101  -15.58249
      H1    -8.77994   17.76616  -14.97014
       H   -11.93014   16.00110  -18.14607
       O   -11.37511   16.33875  -17.41674
      H1   -10.86056   15.59626  -17.10218
       H   -10.38888   16.53208  -18.75984
       O    -9.97041   16.71128  -19.58569
      H1   -10.24720   17.64351  -19.74034
       H   -12.24575   17.24545  -15.80376
       O   -12.24633   17.52096  -14.86708
      H1   -13.13172   17.58113  -14.47728
       H   -10.94687   18.46846  -14.27104
       O   -10.08506   18.88898  -14.09859
      H1   -10.23165   19.78644  -13.75016
       H    -9.90075   19.26292  -15.80216
       O    -9.97448   19.75706  -16.63848
      H1   -10.28551   19.09777  -17.24078

