24
frame 3 | Written by MDAnalysis XYZWriter (release 2.4.3)
       H    12.75195   15.13330  -16.82979
       O    13.02948   16.00807  -17.05120
      H1    13.90302   15.74482  -17.41709
       H    15.88852   14.11072  -16.73303
       O    15.37612   14.32311  -15.97121
      H1    14.90049   13.50316  -15.69817
       H    17.48540   17.08155  -15.43511
       O    17.48123   17.62400  -16.26887
      H1    16.51741   17.58825  -16.59599
       H    14.30058   12.11310  -15.05363
       O    13.63565   12.72779  -14.86224
      H1    13.76901   12.85752  -13.91825
       H    12.55645   16.73291  -18.57490
       O    12.38642   17.13569  -19.42278
      H1    13.25974   17.23828  -19.86456
       H    14.77684   15.55175  -14.38822
       O    14.27057   16.34555  -14.23458
      H1    13.88155   16.32568  -15.07657
       H    14.88035   18.65163  -16.39152
       O    14.78534   18.26092  -17.28432
      H1    13.91184   17.75839  -17.28569
       H    16.49649   13.76435  -19.27168
       O    16.86114   13.44508  -18.42937
      H1    17.76530   13.57837  -18.34276

