24
frame 4 | Written by MDAnalysis XYZWriter (release 2.4.3)
       H    16.22689  -18.69576   19.74189
       O    15.26526  -18.76119   19.57220
      H1    15.29381  -18.11450   18.81890
       H    17.96721  -14.33912   17.76641
       O    17.92101  -15.03737   17.08323
      H1    18.41397  -15.77132   17.47663
       H    19.58595  -17.92963   16.61787
       O    19.65792  -17.36386   17.41824
      H1    19.45432  -17.93015   18.16089
       H    16.72105  -18.22084   16.61965
       O    16.81680  -18.81754   15.89381
      H1    16.82347  -19.68667   16.34263
       H    18.13921  -13.17121   19.61505
       O    19.03061  -13.46514   19.33174
      H1    19.21994  -12.73357   18.73598
       H    18.50824  -19.00603   15.62069
       O    19.44230  -19.00827   15.37471
      H1    19.77331  -19.82668   15.69201
       H    16.36436  -14.02326   14.71917
       O    16.55454  -14.86039   14.26304
      H1    17.17309  -15.41661   14.73487
       H    15.17436  -17.13457   17.02584
       O    15.84508  -16.87016   17.62310
      H1    16.11922  -15.91001   17.39689

