24
frame 3 | Written by MDAnalysis XYZWriter (release 2.4.3)
       H     1.03317   -8.41235   13.16794
       O     1.73198   -8.50613   13.82807
      H1     2.53803   -8.10103   13.48006
       H     4.76506   -9.74818   14.69044
       O     5.02829   -9.48980   13.80193
      H1     4.67748  -10.14945   13.15240
       H     3.31677   -9.99813   16.30592
       O     4.15732  -10.44150   16.10000
      H1     4.47887  -10.75535   16.97900
       H     4.56727   -7.89771   18.15395
       O     3.86202   -7.27685   18.01521
      H1     4.26967   -6.45949   17.60782
       H    -0.34735   -7.42311   18.01297
       O    -0.49298   -8.16918   18.65842
      H1     0.38012   -8.53417   18.78184
       H     5.32508   -6.97626   15.05161
       O     6.25200   -6.84155   14.76905
      H1     6.40432   -5.86349   14.86960
       H     1.40401   -5.27575   16.38334
       O     2.03528   -4.94217   15.71354
      H1     1.77999   -4.02211   15.70472
       H     1.84113   -8.81752   15.50319
       O     2.14234   -8.83959   16.47178
      H1     2.71852   -8.11121   16.53674

