24
frame 0 | Written by MDAnalysis XYZWriter (release 2.4.3)
       H    -7.76078    3.34308    6.31266
       O    -7.21021    3.93314    5.73109
      H1    -7.72591    4.04247    4.90719
       H   -10.32636    6.71665    4.70982
       O    -9.47004    6.24998    4.72459
      H1    -9.26965    6.28185    5.68640
       H    -8.55910    2.27637    8.52329
       O    -7.77595    2.17293    7.90631
      H1    -7.01230    2.48204    8.40543
       H    -8.15279    5.07104    7.13192
       O    -8.19505    6.03173    7.33355
      H1    -8.75900    6.08323    8.13670
       H    -7.83002    0.86725    6.65078
       O    -7.55322    0.26888    5.95502
      H1    -8.01038   -0.57891    6.20307
       H    -9.02784    4.66238    3.50888
       O    -8.51821    3.94158    3.14617
      H1    -9.09896    3.15618    3.20331
       H    -4.99902    4.13744    4.37597
       O    -4.20766    3.68857    4.71827
      H1    -3.60617    3.75577    3.96870
       H    -6.60150    6.72259    7.34280
       O    -5.97139    7.43723    7.45257
      H1    -5.12952    7.04393    7.23236

