24
frame 0 | Written by MDAnalysis XYZWriter (release 2.4.3)
       H   -19.89042   12.13186    1.07297
       O   -19.76398   13.03058    0.71810
      H1   -19.16776   13.48108    1.31825
       H   -16.11832   18.45906   -0.73175
       O   -16.64262   17.68044   -0.95091
      H1   -16.56549   17.54285   -1.91353
       H   -15.72178   15.31190    0.60660
       O   -16.58391   14.90540    0.86033
      H1   -17.20531   15.18036    0.22041
       H   -19.33396   18.95600    0.34234
       O   -18.93979   18.76212   -0.54779
      H1   -18.05708   18.40864   -0.36307
       H   -18.69544   17.11331    1.52195
       O   -18.17937   16.89647    2.35660
      H1   -17.59387   16.19923    2.02542
       H   -16.89454   15.92771   -3.68755
       O   -17.05317   16.82326   -3.54445
      H1   -17.48186   17.08853   -4.37327
       H   -18.50118   12.80733   -2.45704
       O   -17.85818   13.42924   -2.82005
      H1   -18.17823   14.23158   -2.33736
       H   -18.82017   16.55983   -0.59080
       O   -18.71044   15.56687   -0.69244
      H1   -19.45764   15.14192   -0.28873

