24
frame 3 | Written by MDAnalysis XYZWriter (release 2.4.3)
       H     6.37222   -8.15130  -12.73444
       O     5.93580   -8.96539  -12.50018
      H1     6.67421   -9.53798  -12.18139
       H     5.40573  -12.82948  -15.39672
       O     5.41419  -13.62542  -15.94515
      H1     5.41404  -14.35382  -15.34780
       H     2.42235  -11.19269  -17.63133
       O     2.08965  -10.64636  -16.90946
      H1     2.82007  -10.09562  -16.51865
       H     5.53429   -8.55104  -17.00879
       O     5.94430   -8.24021  -17.87314
      H1     5.90546   -7.27521  -17.86642
       H     5.58868  -10.34835  -13.69442
       O     5.13773  -11.09314  -14.16033
      H1     4.34119  -11.14922  -13.70040
       H     4.47386   -8.30949  -15.33976
       O     4.38875   -9.15086  -15.80323
      H1     4.71879   -9.90490  -15.18405
       H     3.67537   -6.07281  -14.52559
       O     4.12451   -6.36286  -15.33425
      H1     3.54390   -6.06768  -16.05344
       H     2.97878  -11.97554  -12.25202
       O     3.10085  -11.03872  -12.49188
      H1     2.40932  -10.71340  -13.08610

