24
frame 4 | Written by MDAnalysis XYZWriter (release 2.4.3)
       H    15.98467   -5.90390  -19.78444
       O    16.93572   -5.92652  -19.40789
      H1    16.85203   -6.03311  -18.46742
       H    17.05092   -5.19105  -14.32392
       O    16.54803   -6.05546  -14.26814
      H1    15.80381   -5.85736  -13.72074
       H    14.68073   -5.01301  -15.39706
       O    14.52040   -5.05383  -16.31984
      H1    13.54408   -4.96618  -16.30288
       H    11.93708   -4.69750  -14.45678
       O    11.97573   -5.32669  -15.21005
      H1    11.43055   -6.04901  -14.90999
       H    16.17466   -3.30707  -18.50535
       O    15.46876   -2.86503  -17.97968
      H1    15.02287   -3.62532  -17.52477
       H    12.25802   -9.88264  -17.09212
       O    12.95824   -9.95208  -17.74618
      H1    12.62601   -9.39596  -18.49992
       H    14.09746  -10.50702  -16.43880
       O    14.83437  -10.27818  -15.81922
      H1    15.04754   -9.31236  -15.85702
       H    16.32074   -7.41137  -16.07601
       O    15.62329   -7.75835  -16.63840
      H1    14.97085   -7.06866  -16.57051

