24
frame 3 | Written by MDAnalysis XYZWriter (release 2.4.3)
       H     3.77024   13.10128   14.56980
       O     4.56248   12.75506   14.20947
      H1     4.58376   12.97605   13.28752
       H     3.04567   16.82409   12.55042
       O     2.32344   16.85056   13.23342
      H1     1.55212   16.63839   12.64375
       H     5.16465   17.45783   11.47941
       O     4.80844   16.61325   11.75574
      H1     4.87883   16.04237   10.97796
       H     4.28173   19.09269   15.65629
       O     4.08874   19.66550   14.89047
      H1     3.27525   20.15598   15.06397
       H     4.16497   16.97515   15.46630
       O     4.86026   17.13776   16.14064
      H1     5.33030   16.32310   16.34168
       H     6.52046   14.46063   16.53168
       O     6.23303   15.02663   17.23873
      H1     6.53276   14.53467   18.03407
       H     7.21458   17.00360   13.99354
       O     7.20425   17.65864   14.72792
      H1     6.37977   17.49385   15.25399
       H     2.11385   14.75425   14.62626
       O     2.47036   14.15385   15.26923
      H1     1.65408   13.71215   15.49390

