24
frame 0 | Written by MDAnalysis XYZWriter (release 2.4.3)
       H    -9.80908  -15.11419  -16.89010
       O   -10.47930  -14.44265  -16.64703
      H1   -10.06904  -13.89852  -15.92131
       H   -10.29707  -14.82553  -12.53074
       O   -10.12171  -14.49789  -11.60649
      H1    -9.85828  -13.56558  -11.75780
       H   -11.78535  -16.07927  -13.83678
       O   -10.85621  -15.76924  -14.04441
      H1   -10.91510  -15.38874  -14.92908
       H    -8.52654  -17.15424  -17.26336
       O    -8.63780  -16.56558  -16.48521
      H1    -7.91336  -16.68858  -15.86222
       H   -11.71542  -18.93314  -11.70227
       O   -11.53261  -18.02520  -11.38390
      H1   -12.18308  -17.53336  -11.89988
       H    -9.67610  -17.65605  -12.69375
       O    -8.90785  -18.14147  -13.05810
      H1    -8.39430  -17.49851  -13.56723
       H   -11.60298  -19.82648  -14.61810
       O   -10.78908  -19.35260  -14.85452
      H1   -10.53947  -18.84423  -14.08130
       H   -14.20809  -16.56028  -13.10928
       O   -13.41519  -16.07616  -12.92164
      H1   -13.77325  -15.22497  -12.85217

