24
frame 4 | Written by MDAnalysis XYZWriter (release 2.4.3)
       H     7.59035   15.22713    8.63852
       O     7.60151   14.36568    9.11070
      H1     7.14454   13.76861    8.53092
       H    12.25329   11.64527    9.05334
       O    11.34089   11.29801    8.99040
      H1    10.87973   11.87994    9.68880
       H    11.03996   14.89590   14.16541
       O    11.11319   13.95855   14.51905
      H1    11.57239   13.46693   13.83664
       H     9.41649   13.70421   14.34977
       O     8.49817   13.86475   13.96232
      H1     7.79209   13.54782   14.60554
       H     5.90238   11.26221   10.75249
       O     6.60302   10.58994   10.82271
      H1     7.30824   10.89656   11.38654
       H     8.55147   12.05673   13.13208
       O     8.49312   11.49130   12.41081
      H1     9.06769   10.77684   12.69740
       H    10.17881   13.98247   10.59061
       O    10.34245   13.01824   10.87429
      H1     9.49586   12.67710   11.18221
       H    12.12874   13.61409   11.77437
       O    12.94201   13.55857   12.32402
      H1    12.99396   12.57873   12.17141

