24
frame 4 | Written by MDAnalysis XYZWriter (release 2.4.3)
       H    -5.94445  -19.41693  -16.91498
       O    -5.58276  -18.50788  -16.69227
      H1    -5.38611  -18.47523  -15.76577
       H    -6.99896  -17.52918  -14.03577
       O    -7.23051  -17.47849  -13.10520
      H1    -6.71081  -18.06448  -12.56703
       H    -4.09703  -18.32658  -14.12630
       O    -4.05219  -17.42665  -14.47227
      H1    -3.17293  -17.07240  -14.27923
       H    -5.00735  -15.73700  -14.53052
       O    -5.66901  -15.26923  -15.07421
      H1    -5.09767  -14.46970  -15.15187
       H    -1.15694  -16.74105  -12.73810
       O    -1.15704  -17.53034  -13.24332
      H1    -0.57872  -18.01618  -12.61351
       H    -5.36746  -18.69316  -10.41272
       O    -5.68868  -18.86763  -11.35204
      H1    -6.37414  -19.64245  -11.25031
       H    -2.22769  -17.33525  -16.58230
       O    -2.93203  -16.82237  -16.96693
      H1    -3.66974  -17.05867  -16.36673
       H    -2.00396  -20.19517  -16.81563
       O    -1.56424  -19.36114  -16.99517
      H1    -1.99338  -19.03469  -17.82931

