24
frame 4 | Written by MDAnalysis XYZWriter (release 2.4.3)
       H    10.51193   18.91683    0.67663
       O    11.38317   19.05430    1.19046
      H1    11.26989   19.57474    1.99301
       H    13.92895   19.00658   -1.54507
       O    13.96863   19.26102   -2.54027
      H1    14.00455   18.40776   -2.99721
       H    10.98821   18.45319   -2.36288
       O    11.20004   19.26198   -2.87408
      H1    12.18508   19.25311   -2.97959
       H    14.19723   16.16808    0.52720
       O    14.15089   16.80812   -0.18689
      H1    13.22506   16.79870   -0.47532
       H    11.28312   16.34224   -2.50754
       O    11.47692   16.73037   -1.61752
      H1    10.67716   16.56828   -1.10089
       H    10.78902   16.26445   -4.70107
       O    10.99005   15.51112   -4.19461
      H1    10.18593   15.03468   -4.00683
       H     8.58090   17.70869    0.07248
       O     9.30867   18.25318   -0.24441
      H1     8.88676   19.08454   -0.46312
       H    10.67864   18.74523   -4.54994
       O    10.69346   18.07723   -5.21844
      H1     9.82975   18.13318   -5.66287

