24
frame 5 | Written by MDAnalysis XYZWriter (release 2.4.3)
       H   -17.55252    0.86766  -15.02879
       O   -17.21802    1.26038  -14.17503
      H1   -17.06399    2.18831  -14.44152
       H   -14.54651    1.11478  -16.33313
       O   -15.05758    1.78561  -16.84461
      H1   -15.51652    2.20259  -16.07186
       H   -15.67100    6.37508  -17.44057
       O   -15.64911    5.37605  -17.31658
      H1   -14.80932    4.98985  -17.66778
       H   -17.60058    0.05534  -17.21613
       O   -17.79316   -0.49176  -16.39968
      H1   -17.21943   -1.25071  -16.42852
       H   -15.84656   -0.66796  -18.85666
       O   -15.17919   -1.00388  -19.45100
      H1   -14.59297   -1.36126  -18.73591
       H   -13.99311    3.68210  -19.07695
       O   -13.79200    3.81640  -18.12500
      H1   -14.09030    3.02549  -17.69598
       H   -12.84102   -0.67716  -15.64312
       O   -13.20106   -0.03545  -15.02599
      H1   -12.50475    0.67387  -15.02190
       H   -15.76508    4.38309  -15.88971
       O   -16.17212    3.94090  -15.13446
      H1   -15.67147    4.18911  -14.35993

