24
frame 4 | Written by MDAnalysis XYZWriter (release 2.4.3)
       H    18.63485  -16.85033  -11.48073
       O    17.89476  -16.57865  -12.09315
      H1    18.26846  -15.78551  -12.40965
       H    13.68760  -17.29765  -15.14626
       O    14.57140  -16.92043  -15.01629
      H1    14.95560  -17.54993  -14.44730
       H    18.68296  -18.45510  -19.06181
       O    19.26282  -19.00919  -19.61453
      H1    20.07712  -18.87592  -19.10915
       H    17.41055  -20.05092  -16.47368
       O    17.15500  -19.12494  -16.28729
      H1    17.91159  -18.93489  -15.69274
       H    12.82669  -16.88268  -18.75136
       O    12.59664  -17.88198  -18.64251
      H1    13.43679  -18.34588  -18.88168
       H    18.19330  -16.85074  -18.34313
       O    17.51530  -17.59867  -18.35476
      H1    17.55725  -18.00310  -17.49072
       H    15.14214  -15.39883  -16.47420
       O    15.18416  -15.14922  -17.42262
      H1    15.44099  -15.95433  -17.88544
       H    17.94941  -18.53768  -11.76085
       O    18.36236  -19.33355  -11.44210
      H1    17.74310  -19.68237  -10.75129

