24
frame 4 | Written by MDAnalysis XYZWriter (release 2.4.3)
       H    -9.93896   -4.05802  -16.47019
       O   -10.27040   -4.93374  -16.58032
      H1   -10.71364   -4.88865  -17.45437
       H   -10.40082   -4.46750  -19.80825
       O   -10.99791   -4.97970  -19.29319
      H1   -10.40304   -5.73482  -19.28982
       H   -11.71992   -7.52629  -15.10682
       O   -12.05554   -6.62904  -15.12710
      H1   -11.48343   -6.19853  -15.78469
       H    -8.48565   -2.62257  -17.66639
       O    -8.22904   -2.74247  -18.55991
      H1    -8.09288   -3.67752  -18.78749
       H   -11.51083   -3.22731  -13.62648
       O   -10.73183   -3.65837  -14.07344
      H1   -11.01339   -4.53746  -14.41583
       H    -9.29870   -1.61031  -15.99487
       O    -8.94700   -2.50942  -15.78292
      H1    -9.51188   -2.82389  -14.97422
       H    -6.83551   -6.04886  -16.85367
       O    -7.57101   -6.41264  -16.30826
      H1    -8.38956   -5.96258  -16.51791
       H    -6.31333   -5.29471  -13.75933
       O    -6.83782   -6.12820  -13.85908
      H1    -7.23892   -6.07809  -14.76079

