24
frame 4 | Written by MDAnalysis XYZWriter (release 2.4.3)
       H    -4.81517  -11.75821  -15.70066
       O    -4.58277  -12.64508  -15.36120
      H1    -4.15829  -13.17639  -16.09038
       H    -3.67327   -9.45381  -12.45051
       O    -3.94194   -9.61034  -11.52844
      H1    -3.34068   -9.16043  -10.93746
       H    -3.40111  -10.46649  -17.24088
       O    -2.70152  -10.73993  -16.65629
      H1    -3.04602  -10.56625  -15.78230
       H    -1.72814   -7.23876  -14.16802
       O    -1.11986   -7.01465  -13.44204
      H1    -0.63338   -7.85764  -13.37089
       H    -3.78520   -8.57673  -14.33359
       O    -3.31750   -9.34574  -14.05252
      H1    -2.39671   -9.05116  -14.00504
       H    -4.10132   -6.03677  -15.21779
       O    -4.24258   -6.60750  -14.44711
      H1    -5.17578   -6.52147  -14.26864
       H    -1.77818   -8.77192  -16.48270
       O    -2.06311   -7.86911  -16.21603
      H1    -1.46535   -7.30016  -16.74705
       H    -0.73057  -10.72139  -14.05775
       O    -0.47502   -9.81686  -13.86948
      H1     0.06327   -9.51292  -14.60221

