24
frame 4 | Written by MDAnalysis XYZWriter (release 2.4.3)
       H    16.63800  -14.74684    1.07494
       O    16.78094  -13.80812    0.87249
      H1    16.66405  -13.77521   -0.12643
       H    17.97495  -12.34414    0.31728
       O    18.35888  -11.61871   -0.22154
      H1    19.21668  -11.50536    0.25003
       H    17.15397  -10.53644    0.72335
       O    16.85254   -9.86269    1.39757
      H1    15.88486   -9.66681    1.44065
       H    13.85161  -12.53424    2.44933
       O    14.22376  -12.57893    1.55529
      H1    15.09487  -12.98610    1.61607
       H    17.70396  -12.73804    3.11114
       O    17.70500  -11.91556    3.60612
      H1    17.55085  -11.16423    3.02346
       H    15.41672  -12.97783    5.62832
       O    15.29973  -13.08075    4.67095
      H1    16.04998  -12.58202    4.29852
       H    16.54301  -15.97843    5.28062
       O    15.91266  -15.81694    4.62415
      H1    15.55875  -14.89212    4.75199
       H    17.58083  -16.83911    1.47411
       O    16.68351  -16.45844    1.78265
      H1    16.73727  -16.41346    2.76563

