24
frame 5 | Written by MDAnalysis XYZWriter (release 2.4.3)
       H    -6.33095   12.76859   15.44037
       O    -6.92700   12.68583   16.18605
      H1    -7.18391   13.56089   16.44377
       H    -9.43085   13.49305   18.66060
       O    -9.81651   14.22055   18.16235
      H1    -9.66421   14.90383   18.78092
       H    -7.87116   16.64583   19.81546
       O    -6.95890   16.60329   19.45905
      H1    -7.02755   16.87748   18.51622
       H   -11.04433   18.34468   17.92327
       O   -11.61466   17.61217   17.52399
      H1   -10.99600   17.26333   16.81561
       H    -8.83029   15.75531   15.72458
       O    -8.70947   14.77550   15.84901
      H1    -8.93149   14.61078   16.77392
       H   -12.93373   16.86287   18.88664
       O   -13.33724   16.39390   19.64994
      H1   -14.10534   16.98340   19.85497
       H    -8.90458   17.65869   15.99308
       O    -9.68989   17.22216   15.53668
      H1    -9.76788   17.67275   14.66566
       H   -12.53496   13.14140   17.53374
       O   -12.44462   14.02953   17.91209
      H1   -11.48674   14.11404   17.90792

