24
frame 5 | Written by MDAnalysis XYZWriter (release 2.4.3)
       H    14.65168    2.74963  -17.29208
       O    15.54535    3.00250  -17.55885
      H1    15.50404    3.23835  -18.50865
       H    15.13533   -1.40602  -16.62624
       O    14.81993   -0.59778  -16.31833
      H1    15.62430   -0.25149  -15.90645
       H    12.77453    1.41093  -17.06116
       O    13.32677    1.84497  -16.36693
      H1    13.80280    1.10072  -15.97989
       H    10.69711   -2.51952  -20.33787
       O    10.42980   -2.38815  -19.43443
      H1    10.99038   -2.94638  -18.88983
       H     9.55484   -1.35303  -18.02729
       O     9.37402   -0.71491  -17.34543
      H1     9.58688   -1.16275  -16.51937
       H    12.09267    2.42617  -15.19529
       O    11.52369    2.94382  -14.53625
      H1    10.61467    2.60004  -14.79214
       H    12.12101    0.32913  -18.58253
       O    11.46189    1.00973  -18.21507
      H1    10.68663    0.48228  -17.94044
       H    13.91740   -1.25983  -18.68336
       O    13.27050   -0.74900  -19.17330
      H1    12.87323   -1.38760  -19.82925

