24
frame 5 | Written by MDAnalysis XYZWriter (release 2.4.3)
       H    18.33279   16.48186  -17.09191
       O    18.78201   16.31079  -17.87949
      H1    18.25100   16.78927  -18.56253
       H    12.73242   12.14117  -18.11500
       O    13.53379   12.60718  -17.91160
      H1    13.62071   12.36397  -16.97537
       H    15.85112   13.83290  -17.19844
       O    16.10380   13.78573  -16.20795
      H1    15.57405   13.10438  -15.78161
       H    16.88899   16.35818  -14.91469
       O    16.79010   16.87061  -15.76414
      H1    15.85742   16.68246  -15.91269
       H    18.85594   14.79325  -18.82359
       O    19.10890   13.94911  -19.19471
      H1    19.94317   13.69070  -18.71196
       H    17.71234   10.38559  -17.66705
       O    16.83239   10.59802  -17.81800
      H1    16.74782   11.53050  -17.91669
       H    13.48641   14.92362  -18.18748
       O    13.06470   15.74129  -17.94168
      H1    13.53205   16.38663  -18.53330
       H    16.07641   14.12299  -19.55824
       O    16.43204   13.57273  -18.87159
      H1    17.33344   13.44005  -19.05544

