24
frame 4 | Written by MDAnalysis XYZWriter (release 2.4.3)
       H     1.75088    3.50232  -11.11627
       O     2.44403    2.91278  -10.71944
      H1     2.63117    3.28898   -9.82573
       H     2.25469    2.72604  -14.34204
       O     1.44957    3.17558  -14.04412
      H1     0.85183    2.42569  -13.85772
       H     4.97795    0.65097   -9.52005
       O     5.54997    0.79598  -10.27932
      H1     4.93217    1.07700  -11.03141
       H     6.30841    3.27641  -12.83440
       O     6.39329    2.61178  -13.54691
      H1     7.22224    2.14066  -13.38500
       H     4.75171    4.63190  -12.55865
       O     4.98876    4.19524  -11.71743
      H1     4.19871    3.95398  -11.19763
       H     0.68696    0.27728   -9.84356
       O     1.40230    0.15997  -10.45422
      H1     1.95860    0.94426  -10.48913
       H     4.71664    1.84747  -13.00010
       O     4.12669    1.37054  -12.38990
      H1     3.58853    2.08262  -12.00877
       H     4.15317    0.81529  -15.13515
       O     3.51481    1.49038  -15.19600
      H1     3.84583    2.19541  -15.75926

