24
frame 4 | Written by MDAnalysis XYZWriter (release 2.4.3)
       H     0.77711   -3.66463    8.61286
       O     0.13185   -3.20301    9.20284
      H1    -0.18923   -2.53182    8.59755
       H     3.67340   -6.32552    9.94888
       O     2.78235   -6.44401    9.68928
      H1     2.28705   -5.86264   10.34043
       H     0.25593   -1.13134   11.43479
       O     1.17431   -1.19604   11.12417
      H1     1.06544   -1.87013   10.42383
       H     0.98780   -1.37064    7.05499
       O     0.06591   -1.60002    7.13232
      H1    -0.45052   -0.87998    6.76584
       H    -1.16757   -4.38857    9.13038
       O    -1.63337   -5.22813    9.02470
      H1    -2.55956   -5.00452    9.00228
       H    -2.93962   -4.82061    5.59733
       O    -1.94492   -4.63087    5.79645
      H1    -1.81284   -5.03660    6.69586
       H     0.28689   -5.59799   11.49487
       O     0.98036   -4.86162   11.35184
      H1     0.60103   -4.29995   10.63215
       H     1.54158   -5.27724    6.57068
       O     1.97267   -4.90646    7.35350
      H1     2.09908   -5.71902    7.88485

