24
frame 5 | Written by MDAnalysis XYZWriter (release 2.4.3)
       H    -6.76764    8.84225  -17.86599
       O    -7.56562    9.11274  -17.44319
      H1    -7.84526    8.49001  -16.76719
       H   -11.40232    7.30159  -18.12207
       O   -10.65780    6.70184  -17.89906
      H1   -10.07045    6.97049  -18.60337
       H   -10.65593    4.47819  -18.87396
       O   -11.19886    3.73825  -19.14901
      H1   -12.03147    3.97804  -18.64693
       H   -12.89404    7.74495  -16.55191
       O   -12.98646    8.05973  -17.44124
      H1   -13.22139    8.96697  -17.31504
       H   -10.05217   10.07557  -14.23715
       O   -10.42130    9.66048  -15.03043
      H1   -11.18373    9.15393  -14.73035
       H   -10.38533    3.10659  -17.60920
       O    -9.76753    2.96795  -16.89141
      H1   -10.43310    2.49181  -16.33742
       H    -9.09290    8.17546  -14.95397
       O    -8.58252    7.47984  -15.38683
      H1    -9.17317    6.81798  -15.81962
       H   -13.13952    7.88223  -13.79714
       O   -12.45659    7.59560  -14.44392
      H1   -11.63789    7.37862  -13.92296

