24
frame 5 | Written by MDAnalysis XYZWriter (release 2.4.3)
       H     5.25317   11.90856   14.21829
       O     5.95168   12.00423   14.85240
      H1     6.39164   11.12500   14.90287
       H    10.28674   13.38640   17.27656
       O     9.66666   13.47847   17.98705
      H1    10.22197   13.86221   18.62164
       H     6.97698   16.25835   13.82379
       O     7.77893   15.98829   14.36356
      H1     7.84241   14.98760   14.18220
       H    10.81297   14.20581   15.18350
       O    10.69824   13.21376   15.24582
      H1    11.24898   12.91009   14.48869
       H     9.05048   13.14075   14.32891
       O     8.23991   13.31228   13.75510
      H1     7.53830   12.85813   14.27661
       H     8.82741   12.54948   12.21210
       O     9.32890   12.01075   11.62797
      H1     9.92441   11.48861   12.26187
       H    10.90648   14.56627   10.38588
       O    11.14183   13.81069   10.89408
      H1    10.34707   13.29964   11.18091
       H     9.27953   15.87660   15.23572
       O    10.19066   15.88296   15.63466
      H1    10.59865   16.77805   15.48281

