24
frame 0 | Written by MDAnalysis XYZWriter (release 2.4.3)
       H     4.47782   -7.53092    3.17780
       O     5.22311   -7.58542    2.53777
      H1     4.81279   -7.39991    1.64404
       H     5.70517   -6.18402    3.23676
       O     6.17187   -5.39115    3.65547
      H1     5.44239   -4.81607    4.07645
       H     1.46316   -6.42828    3.11763
       O     1.27667   -7.39852    3.02718
      H1     0.98910   -7.78906    3.83765
       H     3.77589  -10.34556    2.13672
       O     4.77986  -10.30379    2.08011
      H1     4.91302   -9.33718    2.10310
       H     4.19072   -4.45321    5.86669
       O     4.29333   -4.06679    4.95903
      H1     3.58704   -4.47067    4.39056
       H     4.96503   -9.31504    5.79412
       O     5.54454  -10.04593    6.07484
      H1     6.40208   -9.90976    5.59104
       H     3.36043   -7.96898    5.67528
       O     3.69782   -8.54357    4.93584
      H1     2.95490   -9.11586    4.67113
       H     5.01509   -6.42344   -0.17592
       O     4.25361   -6.89467    0.18107
      H1     3.43766   -6.35360    0.01912

