24
frame 5 | Written by MDAnalysis XYZWriter (release 2.4.3)
       H   -10.14996   16.72316   -9.38420
       O   -10.52282   17.05519  -10.25236
      H1    -9.79112   16.98599  -10.91986
       H    -8.97114   17.84875  -13.31332
       O    -8.73902   17.70172  -12.39182
      H1    -7.87577   17.25407  -12.27621
       H    -5.56390   15.93226  -11.99328
       O    -6.28686   16.47415  -12.41471
      H1    -5.80615   16.80138  -13.20798
       H    -6.86824   18.42632  -16.20046
       O    -7.12063   18.21346  -15.27232
      H1    -7.98041   18.67968  -15.13083
       H    -6.76352   16.97998   -8.49134
       O    -7.06873   17.58381   -9.16006
      H1    -6.34379   18.25022   -9.12355
       H    -8.01293   16.57952  -15.80139
       O    -8.52184   15.78216  -15.66679
      H1    -7.94722   15.18878  -15.03803
       H    -6.30141   13.55214  -13.55850
       O    -6.25607   14.40424  -14.01945
      H1    -6.50288   15.12519  -13.43157
       H   -10.60363   18.28774  -14.54536
       O    -9.78403   18.81147  -14.56542
      H1    -9.80806   19.60219  -14.00050

