24
frame 6 | Written by MDAnalysis XYZWriter (release 2.4.3)
       H     4.34860    0.13487   -9.89309
       O     4.92187    0.56162  -10.49988
      H1     4.39019    0.67662  -11.31389
       H     5.01138    3.09719  -14.33156
       O     4.90259    2.12513  -14.22116
      H1     5.32246    1.51972  -14.84450
       H     2.40592   -1.80164  -11.82260
       O     2.78506   -1.99647  -12.69128
      H1     2.56368   -2.94504  -12.73265
       H     0.04761    1.00969  -12.69110
       O    -0.35707    1.88112  -12.68370
      H1    -1.31509    1.91057  -12.40155
       H     0.71633   -0.96750  -10.38010
       O     1.67695   -0.88994  -10.44589
      H1     1.77219   -0.00627  -10.05175
       H     3.71544    1.61817  -13.04811
       O     3.02732    1.14091  -12.47637
      H1     2.76104    1.76548  -11.76763
       H     1.55408   -0.90110  -13.02071
       O     0.69554   -0.48099  -13.36686
      H1     0.04504   -1.18364  -13.35926
       H     3.36145    2.13212  -15.30481
       O     2.83945    1.79425  -16.06784
      H1     3.16596    2.42519  -16.76797

