24
frame 5 | Written by MDAnalysis XYZWriter (release 2.4.3)
       H    -0.47928  -16.82021    2.33235
       O     0.50976  -16.91164    2.46264
      H1     0.83160  -15.99108    2.66755
       H     1.72934  -14.08877    2.24661
       O     2.41367  -14.46667    2.80945
      H1     2.93427  -14.87399    2.15791
       H     0.21314  -13.11600   -4.37242
       O     0.58789  -12.92890   -3.49462
      H1     0.04450  -13.30962   -2.76074
       H     1.73856  -14.86534    0.17861
       O     1.35814  -13.98553    0.18551
      H1     1.94735  -13.42439   -0.37744
       H    -1.41580  -15.38200   -0.93231
       O    -1.90525  -16.20691   -0.72612
      H1    -1.35569  -16.93740   -1.03201
       H    -0.92261  -13.24719   -1.05292
       O    -0.57929  -13.99820   -1.60907
      H1     0.22746  -14.34396   -1.23011
       H     1.96024  -17.06845    0.91121
       O     2.58358  -16.52957    0.32397
      H1     3.37728  -16.35615    0.86996
       H     2.30705  -11.22769   -1.13477
       O     2.97135  -11.91493   -1.07046
      H1     3.40138  -12.10741   -1.91550

