24
frame 5 | Written by MDAnalysis XYZWriter (release 2.4.3)
       H   -16.14011  -17.19224   16.86378
       O   -15.66140  -17.51878   16.06817
      H1   -16.26221  -18.12672   15.62759
       H   -14.85929  -12.32025   16.93439
       O   -15.69139  -12.80582   17.01345
      H1   -15.57254  -13.63097   16.49461
       H   -14.71814  -13.91562   12.61302
       O   -14.17931  -13.66281   13.34705
      H1   -14.59077  -14.06803   14.11082
       H   -14.00819  -18.24742   16.27316
       O   -13.12272  -18.59839   16.14410
      H1   -12.57142  -17.79877   15.84890
       H   -16.62770  -15.55775   18.84617
       O   -16.87985  -16.34409   18.30629
      H1   -17.75071  -16.16457   17.93627
       H   -17.14288  -13.11594   15.07045
       O   -17.95015  -12.66549   14.73345
      H1   -17.67850  -11.79345   14.63793
       H   -16.94781  -14.98335   12.38054
       O   -16.11337  -15.08046   11.95150
      H1   -15.88134  -16.04890   11.98129
       H   -16.60398  -15.25158   14.47604
       O   -15.97355  -14.91185   15.11632
      H1   -15.64026  -15.75557   15.51805

