24
frame 6 | Written by MDAnalysis XYZWriter (release 2.4.3)
       H     7.10315   18.05759   -3.73998
       O     7.11858   17.21209   -3.40495
      H1     7.19424   17.39068   -2.45380
       H    11.60065   18.38611   -2.38380
       O    11.99227   19.19812   -2.76510
      H1    12.86193   19.19698   -2.35440
       H     6.52202   15.83016    0.61086
       O     6.92989   15.46909   -0.19303
      H1     7.89321   15.54497   -0.10148
       H    12.26430   15.13938   -0.92557
       O    12.36699   14.34713   -1.49508
      H1    11.63124   14.45935   -2.07945
       H    10.28884   16.18446   -2.34766
       O    10.38986   17.08249   -2.02783
      H1     9.55937   17.16533   -1.50643
       H    10.46183   15.20294   -4.11378
       O    10.20846   14.64344   -3.35244
      H1     9.20498   14.68082   -3.21886
       H    10.21207   15.92505   -6.06655
       O    10.69137   16.32463   -5.32810
      H1    10.19016   17.14936   -5.13927
       H    10.78296   15.24943    0.73764
       O     9.86258   14.97738    0.88808
      H1     9.80751   14.15920    1.41746

