24
frame 6 | Written by MDAnalysis XYZWriter (release 2.4.3)
       H    18.99377  -10.68734   13.49868
       O    19.81617  -11.28956   13.64618
      H1    19.45459  -12.14957   13.86559
       H    16.69994  -11.12217   14.08440
       O    16.43876  -11.87380   14.68538
      H1    15.54745  -11.62680   15.07503
       H    16.68433  -14.22879   17.24405
       O    16.79806  -15.00595   16.72827
      H1    17.62564  -15.40336   17.06678
       H    16.43750  -16.06012   13.85770
       O    17.18006  -16.32679   13.28367
      H1    17.91887  -16.64952   13.78468
       H    18.82693  -11.69172   16.69183
       O    17.99737  -11.20563   16.89473
      H1    17.53437  -11.46611   16.08372
       H    17.71406  -13.17147   14.30171
       O    18.15203  -13.75555   13.68206
      H1    17.58118  -14.49783   13.72879
       H    17.07444  -14.24081   10.80151
       O    17.07993  -15.16951   10.66856
      H1    17.15000  -15.63543   11.47201
       H    15.62955  -15.45146   15.34814
       O    15.00256  -15.71188   14.68465
      H1    14.62342  -16.61089   14.92251

