24
frame 5 | Written by MDAnalysis XYZWriter (release 2.4.3)
       H   -17.25968   -9.77413   11.46150
       O   -17.46605  -10.71112   11.37689
      H1   -18.26527  -10.82291   11.88498
       H   -17.02125   -7.67439   11.57482
       O   -17.80450   -7.99964   12.00357
      H1   -18.39985   -8.03806   11.23240
       H   -17.75952   -9.15695   14.06959
       O   -17.28392   -9.76732   14.64722
      H1   -16.36521   -9.68197   14.27343
       H   -14.96652  -12.23671   12.67412
       O   -14.95975  -11.36801   12.25087
      H1   -15.79066  -11.28752   11.75487
       H   -14.03830   -8.25351   11.06796
       O   -14.63421   -8.33487   11.90395
      H1   -14.44837   -7.47702   12.31453
       H   -17.23289  -13.33381    9.17994
       O   -17.96426  -12.68522    9.08701
      H1   -17.71385  -11.96068    9.71859
       H   -17.14288  -13.11594   15.07045
       O   -17.95015  -12.66549   14.73345
      H1   -17.67850  -11.79345   14.63793
       H   -14.26749  -10.19697   13.57000
       O   -14.09780   -9.71679   14.40735
      H1   -13.77197   -8.86536   14.02437

