24
frame 5 | Written by MDAnalysis XYZWriter (release 2.4.3)
       H     7.33124   -4.90232  -15.52974
       O     7.63378   -4.00741  -15.65228
      H1     7.13682   -3.59143  -14.96550
       H     9.55484   -1.35303  -18.02729
       O     9.37402   -0.71491  -17.34543
      H1     9.58688   -1.16275  -16.51937
       H    12.24845   -1.50223  -13.63166
       O    12.01786   -2.41855  -13.53819
      H1    12.82256   -2.91053  -13.93342
       H     7.21224    0.22688  -15.20795
       O     6.48710   -0.08335  -15.81346
      H1     7.06427   -0.34838  -16.56326
       H     9.09883   -0.09560  -14.72032
       O     8.89679    0.80143  -14.74052
      H1     9.08328    1.13273  -13.85731
       H    10.07991   -1.26386   -9.80861
       O    10.49636   -1.38724  -10.67609
      H1     9.74803   -1.55452  -11.25508
       H    10.49926   -2.39962  -14.55107
       O     9.64015   -1.88960  -14.78728
      H1     8.99187   -2.60554  -15.00107
       H     8.83265   -4.07766  -17.47440
       O     8.64962   -4.44792  -18.32689
      H1     8.91723   -3.76309  -18.95543

