24
frame 5 | Written by MDAnalysis XYZWriter (release 2.4.3)
       H     9.27263  -14.21706    6.67868
       O     9.06176  -14.61372    5.83784
      H1     8.48262  -13.97693    5.36656
       H     8.90684  -16.86320    0.17532
       O     9.41736  -16.42757    0.85136
      H1     9.05027  -16.73141    1.66525
       H     5.31150  -16.47579    0.96278
       O     4.82820  -15.93790    1.60104
      H1     5.56647  -15.33166    1.73359
       H     4.48610  -17.12887    4.69711
       O     3.59705  -17.44806    4.76773
      H1     3.09279  -16.62880    4.60096
       H     6.43987  -15.96598    4.21813
       O     6.24306  -16.70984    4.75747
      H1     7.01122  -17.27308    4.73140
       H     9.41636  -19.08745    5.25243
       O     8.58972  -18.50583    5.35747
      H1     8.55951  -18.23387    6.28853
       H     9.25053  -17.04479    4.31229
       O     9.30851  -16.55408    3.51179
      H1     9.38941  -15.67367    3.87232
       H     6.26306  -16.37222    6.68820
       O     6.36551  -16.77336    7.57507
      H1     5.45176  -17.08285    7.61000

