24
frame 5 | Written by MDAnalysis XYZWriter (release 2.4.3)
       H     1.05784   -5.88089    2.46770
       O     0.32561   -6.40204    2.84252
      H1     0.34138   -6.30910    3.80597
       H    -1.51990   -4.92632    0.99452
       O    -1.32907   -4.63725    0.08528
      H1    -0.37583   -4.62552   -0.01744
       H     0.31328   -3.10389    2.83931
       O     0.96054   -2.80762    3.45849
      H1     0.49771   -2.25318    4.17687
       H     2.69930   -4.04401    1.60075
       O     2.55534   -4.65845    2.37464
      H1     2.08354   -4.10544    2.98320
       H     2.86730   -0.19109    3.22323
       O     2.21940   -0.50470    2.58318
      H1     1.96216   -1.32158    2.98890
       H    -2.03948   -1.72786    1.34873
       O    -1.47084   -2.03265    0.60487
      H1    -1.64276   -2.98911    0.53641
       H    -3.19793   -4.12582    2.35420
       O    -2.59241   -4.82450    2.52543
      H1    -1.99393   -4.60389    3.22970
       H     1.54573   -1.49803    1.17794
       O     1.45000   -2.22841    0.54857
      H1     0.55959   -2.07664    0.15277

