24
frame 5 | Written by MDAnalysis XYZWriter (release 2.4.3)
       H    -6.47419   11.89195  -16.45793
       O    -6.13436   11.42917  -15.69821
      H1    -6.48825   10.53229  -15.59532
       H   -11.44976   15.38415  -14.45864
       O   -11.01674   14.51614  -14.16864
      H1   -10.30798   14.60759  -14.79275
       H   -10.05217   10.07557  -14.23715
       O   -10.42130    9.66048  -15.03043
      H1   -11.18373    9.15393  -14.73035
       H    -8.01293   16.57952  -15.80139
       O    -8.52184   15.78216  -15.66679
      H1    -7.94722   15.18878  -15.03803
       H   -10.56859   11.03641  -16.83244
       O   -10.92981   11.07732  -17.74659
      H1   -11.90393   10.97765  -17.66566
       H    -7.64388   12.98655  -18.26157
       O    -6.96637   13.38646  -17.62706
      H1    -7.34837   14.16443  -17.29917
       H    -6.30141   13.55214  -13.55850
       O    -6.25607   14.40424  -14.01945
      H1    -6.50288   15.12519  -13.43157
       H    -8.09903   12.17114  -15.00579
       O    -8.99061   12.49059  -15.10285
      H1    -9.36435   12.57877  -14.24823

