24
frame 5 | Written by MDAnalysis XYZWriter (release 2.4.3)
       H     1.79440  -12.11585   -6.29309
       O     1.53656  -12.81011   -6.91335
      H1     0.75223  -13.22324   -6.52878
       H    -1.54655  -14.23796   -5.82981
       O    -0.89517  -13.58455   -5.66333
      H1    -1.28683  -12.70575   -5.60672
       H     0.21314  -13.11600   -4.37242
       O     0.58789  -12.92890   -3.49462
      H1     0.04450  -13.30962   -2.76074
       H    -3.69326  -11.23698   -3.64102
       O    -3.51062  -11.72937   -4.44030
      H1    -4.23572  -11.75631   -5.05186
       H    -2.67232  -15.53951   -6.42662
       O    -1.89596  -16.14947   -6.26824
      H1    -1.26458  -16.02106   -7.03495
       H    -1.19535  -11.75600   -8.13184
       O    -1.90302  -11.53638   -7.61306
      H1    -1.63204  -10.95999   -6.86269
       H    -3.86406  -13.25502   -3.76541
       O    -3.95977  -14.20436   -3.53445
      H1    -4.07502  -14.24353   -2.54673
       H    -2.10113  -10.63203   -4.91371
       O    -1.36318   -9.99662   -5.14133
      H1    -1.85743   -9.17545   -5.28032

