24
frame 0 | Written by MDAnalysis XYZWriter (release 2.4.3)
       H     4.88315   13.78276   18.58806
       O     4.21141   13.23860   19.00834
      H1     3.87247   13.77924   19.72470
       H     4.98656   11.77060   18.47242
       O     5.77006   11.36696   18.07269
      H1     5.98444   10.56027   18.55588
       H     6.90092   12.40470   17.05649
       O     7.47168   13.06508   16.66278
      H1     8.25667   12.52809   16.41986
       H    11.71741   14.76363   18.68795
       O    10.80523   14.47882   18.70206
      H1    10.30994   15.21898   18.29993
       H     5.39929   16.43722   19.22604
       O     5.00098   17.30795   19.41680
      H1     5.79203   17.81980   19.67391
       H     6.93686   14.30776   17.77825
       O     6.53682   14.88826   18.42002
      H1     6.75014   14.61254   19.29861
       H     8.41634   17.35564   17.74388
       O     8.62428   16.52235   18.15452
      H1     7.80613   15.95652   18.21565
       H     6.79075   16.35324   14.41484
       O     6.50014   16.83103   15.27732
      H1     5.92500   16.18678   15.72820

