24
frame 6 | Written by MDAnalysis XYZWriter (release 2.4.3)
       H    13.29515    5.32416   15.58673
       O    12.55099    4.78150   15.36119
      H1    11.85367    5.29042   15.10565
       H    10.19808    6.78749   18.44302
       O    10.60246    6.14176   18.95471
      H1    10.63965    5.32832   18.45537
       H    10.62519    8.59189   17.58669
       O     9.69493    8.28420   17.61261
      H1     9.27675    8.74466   18.33544
       H    11.42771    3.46857   16.97160
       O    10.48848    3.55165   17.26796
      H1    10.36401    2.77798   17.85465
       H     8.56055    3.39000   16.83520
       O     7.66119    3.04688   16.86438
      H1     7.22436    3.22812   15.98780
       H     9.59828    7.97519   15.92846
       O     9.33694    8.01669   14.96960
      H1     8.91732    7.19141   14.63565
       H     9.25175    2.04464   19.26391
       O     9.86844    1.37753   18.97706
      H1    10.59196    1.41679   19.60975
       H    12.70495    9.58546   17.34297
       O    12.13649    9.29842   18.04773
      H1    12.63668    8.53384   18.35377

