24
frame 6 | Written by MDAnalysis XYZWriter (release 2.4.3)
       H     8.75323   14.88769  -11.32912
       O     8.61562   15.41605  -12.13811
      H1     8.18197   14.91910  -12.80759
       H     6.77184   17.38836  -12.90746
       O     6.85669   17.74870  -13.82959
      H1     7.73032   18.14061  -13.88073
       H    10.63438   12.06813  -10.31490
       O    10.42447   12.91809  -10.86190
      H1    10.29241   12.64916  -11.75974
       H     9.61158   17.42867  -14.17592
       O     9.94935   16.58667  -14.37215
      H1     9.71972   16.01509  -13.58739
       H     5.54541   16.50128  -10.20487
       O     5.66609   16.03455  -11.04850
      H1     6.62843   15.88828  -11.15009
       H     7.48604   13.23786  -14.71376
       O     7.71022   14.19184  -14.54573
      H1     7.07594   14.72177  -15.05620
       H    10.60095   11.63546  -13.58201
       O     9.75700   11.90677  -13.21296
      H1     9.39166   11.03937  -12.94729
       H     7.51440   11.75652  -12.05530
       O     6.58283   11.56020  -12.16488
      H1     6.14150   12.32384  -11.73885

