24
frame 5 | Written by MDAnalysis XYZWriter (release 2.4.3)
       H    16.53582   14.79702    2.92732
       O    16.61609   14.17041    2.16861
      H1    16.67943   13.29224    2.59556
       H    17.46255   12.11403    4.30235
       O    17.11480   11.78717    3.44979
      H1    17.77869   11.16401    3.24233
       H    18.87753    9.05704    2.46930
       O    18.90354    9.34456    3.37729
      H1    19.27064    8.54881    3.84227
       H    16.94097    8.98479    4.34926
       O    16.45834    8.89578    5.19396
      H1    16.34642    7.97558    5.42414
       H    17.04420   10.87672    6.03881
       O    17.29296   11.77013    6.28664
      H1    18.10336   11.63459    6.77367
       H    16.61152   12.39063    8.96825
       O    15.83484   13.01133    8.68941
      H1    16.01880   13.24689    7.78503
       H    14.02403   13.45117    5.70142
       O    13.26235   12.85772    5.83865
      H1    13.48732   11.97502    5.64216
       H    13.58367    9.65919    5.81145
       O    14.17627   10.32402    5.45055
      H1    15.01060    9.79737    5.33226

