24
frame 6 | Written by MDAnalysis XYZWriter (release 2.4.3)
       H     2.86329   -4.13109  -19.20416
       O     3.17708   -5.05291  -19.04002
      H1     3.30258   -5.45937  -19.91005
       H     0.98394   -0.33577  -15.39588
       O     1.19090   -0.39060  -16.33362
      H1     1.83017    0.32678  -16.44071
       H    -0.80313   -4.21209  -17.85419
       O    -0.81385   -3.29514  -18.25206
      H1    -1.27213   -2.77190  -17.61053
       H    -0.47485   -0.16599  -16.56988
       O    -1.41985   -0.14589  -16.61747
      H1    -1.63957   -1.00289  -16.22437
       H     1.23599   -2.70636  -18.57166
       O     2.03927   -2.61454  -19.07430
      H1     2.62386   -2.01694  -18.59492
       H     2.68993   -3.77196  -16.01522
       O     2.15523   -4.52244  -16.35732
      H1     2.66173   -4.85220  -17.10445
       H     2.43069   -1.62216  -15.70506
       O     3.14773   -2.09693  -15.31899
      H1     3.04095   -1.94100  -14.36024
       H     3.81313   -1.16790  -16.90915
       O     3.75318   -0.88341  -17.81609
      H1     4.10738    0.04485  -17.88869

