24
frame 5 | Written by MDAnalysis XYZWriter (release 2.4.3)
       H     3.29875   16.85087  -15.70942
       O     3.22166   17.79991  -15.94057
      H1     3.44586   17.82368  -16.87629
       H     8.59610   19.12959  -17.62828
       O     8.04850   19.66733  -18.14346
      H1     8.65750   20.21127  -18.74047
       H     6.03935   16.12014  -15.60352
       O     6.24857   15.51474  -16.37755
      H1     5.48010   15.49141  -16.93069
       H     3.52059   13.80767  -17.83124
       O     4.22762   14.49542  -17.77943
      H1     3.98225   15.20828  -18.40892
       H     9.01221   16.36590  -16.53918
       O     8.53912   16.79967  -17.21908
      H1     7.62073   16.48729  -17.04758
       H     3.06134   17.27416  -19.06820
       O     3.96914   17.23018  -18.81725
      H1     4.29504   18.12233  -19.11722
       H     0.92962   18.03990  -18.63722
       O     1.19422   18.87145  -19.05322
      H1     1.07427   19.52401  -18.40380
       H     6.19688   18.87705  -19.28586
       O     5.40860   19.38009  -19.37351
      H1     5.45032   20.14813  -18.74742

