24
frame 5 | Written by MDAnalysis XYZWriter (release 2.4.3)
       H     5.81682  -19.05641  -15.99917
       O     4.86862  -19.11631  -15.91458
      H1     4.56616  -19.98992  -15.63244
       H     3.54283  -17.14531  -10.95996
       O     3.16495  -18.07321  -10.86149
      H1     2.99107  -18.34447  -11.77840
       H     0.48890  -19.08472  -16.59151
       O     1.34272  -18.77030  -16.44176
      H1     1.72852  -19.28713  -15.73777
       H     1.96692  -15.79317  -14.72759
       O     2.53061  -16.11713  -15.44599
      H1     2.19492  -16.94938  -15.83180
       H     2.35045  -20.21490  -13.03899
       O     1.81030  -19.40235  -13.16844
      H1     2.39787  -18.67661  -13.42028
       H     4.30145  -18.25740  -14.15182
       O     3.74537  -17.69240  -13.62075
      H1     3.28504  -17.03231  -14.23531
       H     4.49320  -16.35279  -12.53840
       O     4.64773  -15.86541  -11.74152
      H1     5.19604  -15.08344  -12.05979
       H     7.75535  -19.06487  -12.86897
       O     7.14956  -18.37534  -12.44181
      H1     6.55771  -18.97198  -11.99327

