24
frame 5 | Written by MDAnalysis XYZWriter (release 2.4.3)
       H    13.75571    4.39044    1.94718
       O    14.20512    4.81242    1.16342
      H1    15.13711    4.91764    1.40764
       H    16.91885    1.53452    1.69661
       O    17.30015    2.30858    1.35854
      H1    18.23195    2.18039    1.21795
       H    15.02719    0.35791   -1.63332
       O    15.83918   -0.20962   -1.77879
      H1    15.78531   -0.59499   -2.64767
       H    14.78462    0.55199    0.02911
       O    14.01906    1.16726   -0.05939
      H1    14.33521    1.97417    0.38705
       H    16.45733   -0.08281    3.38501
       O    16.42338    0.05438    2.44981
      H1    15.99351   -0.66209    1.98065
       H    16.74407    2.78861   -0.40843
       O    16.26136    3.14252   -1.18932
      H1    16.89281    3.01851   -1.92765
       H    17.50255    3.84750    2.01205
       O    17.47874    4.82253    2.16952
      H1    17.57256    5.02342    3.10765
       H    17.21755    6.30110    0.66161
       O    16.91844    6.89106   -0.00603
      H1    17.30978    6.62084   -0.91399

