24
frame 7 | Written by MDAnalysis XYZWriter (release 2.4.3)
       H    18.04945   10.97912   -2.30680
       O    17.44514   10.71357   -3.01106
      H1    16.66858   10.31674   -2.62709
       H    17.70909   12.86937    1.78166
       O    17.80952   13.33684    0.93966
      H1    16.97071   13.26487    0.46451
       H    17.71661   10.34275   -4.83284
       O    17.79287    9.86856   -5.66998
      H1    16.89447    9.81653   -5.90175
       H    19.40714   10.15234   -0.32663
       O    19.44086    9.25354    0.03338
      H1    18.72363    8.72254   -0.21758
       H    19.96511   12.18903   -1.37162
       O    19.30360   11.63492   -0.97667
      H1    18.81742   12.31971   -0.41357
       H    18.16938    9.15325   -2.86251
       O    18.46187    8.19815   -2.86097
      H1    17.96184    7.77509   -3.55453
       H    14.64158   13.13685   -0.45019
       O    15.54504   12.73033   -0.55335
      H1    15.47361   11.82285   -0.84469
       H    18.45592   13.74380   -3.65214
       O    18.63000   14.17750   -2.80738
      H1    19.17128   14.94999   -3.10562

