24
frame 6 | Written by MDAnalysis XYZWriter (release 2.4.3)
       H     0.27095  -16.69992    2.27027
       O     1.26916  -16.87167    2.35267
      H1     1.70680  -16.05799    2.61163
       H     0.93467  -18.24968   -4.41736
       O     1.05514  -17.94880   -3.49101
      H1     0.16400  -17.89847   -3.11604
       H    -5.26808  -15.14973   -0.37295
       O    -4.78834  -14.80764   -1.15375
      H1    -3.85895  -15.10680   -1.13783
       H    -1.44650  -15.28514   -0.83097
       O    -1.92677  -16.02226   -0.42579
      H1    -1.62050  -16.68297   -1.02492
       H    -1.66283  -15.85265    1.50530
       O    -1.42945  -16.13857    2.38541
      H1    -1.13254  -15.34817    2.88215
       H    -3.89562  -14.02382   -4.42841
       O    -4.16724  -14.88519   -4.09047
      H1    -4.30202  -14.86947   -3.12636
       H    -0.82407  -13.12613   -0.81153
       O    -0.27679  -13.82665   -1.24546
      H1     0.42231  -14.09891   -0.63096
       H    -1.85798  -18.27705   -2.90862
       O    -1.57450  -18.13094   -1.98028
      H1    -1.58716  -18.99335   -1.59194

