24
frame 6 | Written by MDAnalysis XYZWriter (release 2.4.3)
       H   -14.31149  -12.07863   10.11129
       O   -14.13444  -12.53047    9.33502
      H1   -14.48881  -11.98846    8.61331
       H   -11.18911  -10.54105   10.74441
       O   -10.22242  -10.82516   10.85006
      H1   -10.22630  -11.76721   10.73736
       H   -10.24093  -14.42352    7.82398
       O    -9.75229  -15.23124    7.94033
      H1   -10.33866  -15.89936    8.27511
       H   -12.03495  -11.92681    6.32721
       O   -12.18620  -11.09190    5.84163
      H1   -11.28165  -10.66811    5.89859
       H   -10.20334  -14.39114    9.71733
       O   -10.36969  -13.56248   10.22479
      H1   -10.80404  -13.89329   11.02446
       H   -11.98311  -13.13978    8.18738
       O   -11.47447  -13.27492    7.35362
      H1   -12.10062  -13.62544    6.72617
       H   -15.44077  -10.46241    7.11950
       O   -14.82409  -11.21594    7.06284
      H1   -13.99548  -10.82560    6.68633
       H   -14.06554  -13.43091    5.35829
       O   -13.46054  -14.13845    5.65825
      H1   -14.10050  -14.67179    6.20907

