24
frame 6 | Written by MDAnalysis XYZWriter (release 2.4.3)
       H   -18.21185    0.54103   -8.72243
       O   -17.93390    1.39755   -8.32808
      H1   -17.42460    1.20603   -7.54224
       H   -16.95440    4.37379   -9.67725
       O   -16.64688    3.46066   -9.74638
      H1   -17.11239    2.89906   -9.07157
       H   -14.83783    1.89202  -11.39516
       O   -14.37675    2.36188  -10.64057
      H1   -15.02288    2.81483  -10.05589
       H   -15.22503    6.83860   -7.20990
       O   -15.90016    7.34182   -7.71883
      H1   -16.33120    6.75489   -8.33839
       H   -17.41461    3.58351  -11.29449
       O   -17.78700    3.73505  -12.22913
      H1   -18.63054    3.18458  -12.32635
       H   -14.38699    1.18221   -9.07314
       O   -14.42834    0.58089   -8.34476
      H1   -13.48183    0.46305   -8.07925
       H   -17.06516    6.35957  -10.98480
       O   -17.24050    6.13876  -10.08311
      H1   -18.16511    5.90495   -9.90585
       H   -15.18247    4.78020  -13.07435
       O   -14.37757    4.22173  -13.13370
      H1   -14.59979    3.57420  -12.47752

