24
frame 6 | Written by MDAnalysis XYZWriter (release 2.4.3)
       H   -13.05782   14.00837  -10.35709
       O   -13.32951   13.70830   -9.44040
      H1   -14.11977   13.14534   -9.55363
       H   -13.95320   11.63717  -12.37678
       O   -13.87975   11.39453  -11.44163
      H1   -14.63740   11.87045  -10.94339
       H   -16.35467   13.14529  -10.96417
       O   -15.98208   12.82221  -10.11894
      H1   -16.44417   13.18378   -9.30978
       H   -14.43700   15.61874  -12.74301
       O   -14.16491   15.56806  -11.77942
      H1   -13.31023   15.14276  -11.87914
       H   -12.08465   13.80531   -8.13651
       O   -11.23794   13.99421   -7.67757
      H1   -11.00952   14.90076   -7.84680
       H   -15.59019   16.67512   -9.42414
       O   -15.01756   16.22154   -8.81986
      H1   -14.50988   15.53021   -9.17892
       H   -11.41935   14.77448  -12.58189
       O   -11.46061   14.89635  -11.60987
      H1   -11.48649   15.87381  -11.41470
       H    -9.75410   14.17619  -11.61081
       O    -8.87955   13.70891  -11.50737
      H1    -8.22234   14.33164  -11.28235

