24
frame 0 | Written by MDAnalysis XYZWriter (release 2.4.3)
       H     2.79738  -11.57420   -5.52366
       O     1.88265  -11.41893   -5.73998
      H1     1.30007  -11.54141   -4.96879
       H     4.77700  -13.83214   -4.33661
       O     4.11594  -13.55291   -5.05938
      H1     3.32443  -13.74697   -4.58388
       H     5.15087  -10.43541   -5.69121
       O     4.60413  -11.16414   -6.16073
      H1     4.64304  -12.04039   -5.61969
       H     6.14547  -15.38746   -2.22895
       O     5.67330  -15.08191   -3.05677
      H1     6.14046  -15.77021   -3.70066
       H     3.49621  -17.30884   -2.94046
       O     3.29464  -16.38231   -2.66066
      H1     4.02780  -15.73629   -2.98599
       H     2.11914  -15.22062   -3.68554
       O     1.74438  -14.57429   -4.33181
      H1     1.25420  -13.91175   -3.91144
       H     3.98732  -11.34817   -2.95743
       O     3.67967  -11.42099   -2.04900
      H1     3.17271  -10.60175   -1.88733
       H     8.17158  -11.65048   -5.78990
       O     7.77417  -11.53541   -4.89435
      H1     7.53936  -12.44614   -4.60398

