24
frame 7 | Written by MDAnalysis XYZWriter (release 2.4.3)
       H    15.26301  -10.62013   13.94433
       O    15.30191  -11.27615   14.57956
      H1    14.58538  -10.98877   15.20852
       H    12.85507  -13.57468   15.11523
       O    12.03271  -13.34968   15.59688
      H1    11.34181  -13.96309   15.28853
       H    11.58280  -11.76927   14.71076
       O    11.19485  -10.95037   14.37697
      H1    11.28842  -11.01031   13.40315
       H    14.89989  -12.99871   17.72559
       O    15.55838  -13.34145   17.16372
      H1    16.21762  -12.67193   16.96044
       H    18.10953  -12.18208   15.73313
       O    17.61120  -11.47741   16.19372
      H1    16.83125  -11.27019   15.68410
       H    16.57818  -13.02535   14.42491
       O    17.33220  -13.50593   14.14165
      H1    16.98537  -14.18400   13.50307
       H    14.37840  -14.48492   14.31463
       O    14.01412  -13.66516   13.93991
      H1    14.60446  -12.96378   14.29389
       H    15.80523  -16.04441   15.63081
       O    15.21985  -15.95108   14.90050
      H1    14.79705  -16.86483   14.90007

