24
frame 7 | Written by MDAnalysis XYZWriter (release 2.4.3)
       H   -16.56867  -18.52196   16.55897
       O   -16.44272  -18.07655   15.73116
      H1   -16.26333  -18.82821   15.08671
       H   -16.25674  -13.99211   18.89734
       O   -16.80349  -13.32017   18.42555
      H1   -16.45073  -13.12109   17.56283
       H   -14.85571  -12.11835   15.83794
       O   -15.29774  -13.00524   15.93213
      H1   -14.62642  -13.66136   16.02327
       H   -16.71747  -19.07499   18.60486
       O   -16.20184  -19.77400   18.16672
      H1   -15.29093  -19.65373   18.52670
       H   -17.80641  -14.71548   18.53865
       O   -18.20245  -15.56460   18.24833
      H1   -19.13154  -15.34189   18.08361
       H   -18.41173  -10.72353   19.35753
       O   -18.62697  -11.62312   19.64958
      H1   -18.01214  -12.15958   19.11811
       H   -18.37900  -13.08760   16.62591
       O   -18.73868  -12.87475   15.75782
      H1   -18.57236  -11.96836   15.60164
       H   -16.82479  -14.79794   14.34354
       O   -16.13262  -15.48787   14.38169
      H1   -16.43520  -16.27435   14.90957

