24
frame 6 | Written by MDAnalysis XYZWriter (release 2.4.3)
       H     2.44920  -14.47449    1.62394
       O     2.76575  -14.53334    2.54186
      H1     3.69677  -14.93145    2.34186
       H     2.39279  -10.84020    4.08575
       O     2.35496   -9.87198    4.12994
      H1     1.48807   -9.48188    4.37120
       H     0.12624  -13.98239    5.97156
       O     0.88379  -14.04041    6.52942
      H1     1.47791  -13.40419    6.10471
       H     6.96377  -10.32485    5.50942
       O     6.13654  -10.78937    5.29130
      H1     5.95988  -10.86612    4.32815
       H     5.34077  -12.05957    6.63836
       O     4.55178  -12.50808    6.88265
      H1     4.62659  -12.85884    7.76687
       H     3.36796  -11.42246    7.18247
       O     2.63919  -10.78537    7.31942
      H1     3.03518  -10.00200    7.64683
       H     5.93414  -13.82242    4.56369
       O     5.19585  -14.41204    4.29950
      H1     5.50148  -14.92999    3.54389
       H     3.54569  -12.56014    5.24668
       O     2.74287  -12.58800    4.72165
      H1     2.87624  -13.21105    4.03224

