24
frame 7 | Written by MDAnalysis XYZWriter (release 2.4.3)
       H    14.08845   -3.29862   -2.75125
       O    14.43618   -3.26909   -1.82459
      H1    14.38004   -4.19666   -1.57857
       H    15.07761   -1.73206   -2.43474
       O    15.36868   -0.88030   -2.69254
      H1    15.10351   -0.23440   -2.00194
       H    14.78660    1.03453   -0.05933
       O    14.51538    1.68209   -0.76772
      H1    15.10787    2.40990   -0.55577
       H    15.49558    1.95568    3.26280
       O    15.67138    1.82486    2.33727
      H1    15.65845    0.91654    2.01558
       H    16.73786   -2.60916   -0.03211
       O    15.83867   -2.64808    0.44922
      H1    15.12784   -2.73349   -0.22046
       H    12.74119    0.57126   -1.35293
       O    12.15117    0.40971   -2.05230
      H1    11.99456   -0.54422   -2.00489
       H    13.91372   -1.37254    3.84965
       O    14.18626   -0.46109    3.72715
      H1    13.35107    0.04652    3.65280
       H    15.17577   -1.00884    0.89505
       O    14.76238   -0.18185    1.03161
      H1    14.57532   -0.24057    1.96578

