24
frame 6 | Written by MDAnalysis XYZWriter (release 2.4.3)
       H   -14.41606    8.21530   -1.63784
       O   -13.69432    7.54707   -1.61046
      H1   -13.04536    7.71205   -0.92253
       H   -14.58578    5.00105    2.49240
       O   -15.39388    4.49798    2.63440
      H1   -15.27154    3.89762    1.89258
       H   -14.22933    9.35633    1.42184
       O   -13.96205   10.01383    0.81358
      H1   -14.71317   10.03170    0.25002
       H   -12.31552    5.25856    3.08722
       O   -12.95737    5.65469    2.47425
      H1   -12.58238    5.26437    1.67657
       H   -14.11156    7.32996    2.31255
       O   -14.85489    7.90983    2.32857
      H1   -15.45506    7.62589    1.59318
       H   -15.72396    7.67772    5.12862
       O   -16.31699    8.30718    4.63170
      H1   -15.84589    8.23315    3.80853
       H   -15.40384    9.72929    5.01803
       O   -14.71898   10.40615    5.08798
      H1   -14.05819   10.14052    4.43979
       H   -16.05411    5.65529    1.28162
       O   -16.66290    6.28409    0.88988
      H1   -16.62376    6.13737   -0.07197

