24
frame 6 | Written by MDAnalysis XYZWriter (release 2.4.3)
       H   -13.97148    3.09559   10.30434
       O   -13.59045    3.33006    9.41115
      H1   -13.11061    2.56824    9.09444
       H    -9.06112    2.99493    6.15633
       O    -8.23964    2.76765    5.68452
      H1    -7.96145    1.93982    6.02561
       H   -10.42105    4.88636    7.21311
       O   -10.14183    4.10288    7.70124
      H1    -9.28255    4.32148    8.06802
       H   -11.48858   -0.61365    4.80272
       O   -10.68663   -0.09336    4.87110
      H1   -10.71809    0.45314    5.66140
       H   -10.46237    2.14741    7.56914
       O   -10.47995    1.25077    7.17579
      H1   -11.12313    0.71947    7.67173
       H   -13.26418   -0.51001    8.68799
       O   -12.54731   -0.48147    7.99107
      H1   -12.24386   -1.38830    7.86388
       H    -9.30688   -0.16440    7.26304
       O    -8.77375   -0.90403    7.07101
      H1    -9.25378   -1.66072    6.87801
       H   -10.82233    0.21367   10.22733
       O    -9.91444    0.30783   10.01959
      H1    -9.60714    1.01873   10.57869

