24
frame 7 | Written by MDAnalysis XYZWriter (release 2.4.3)
       H     8.61369  -18.94670   16.89111
       O     9.16747  -18.47072   17.48237
      H1     9.05985  -17.57604   17.13214
       H     9.03961  -14.09476   13.99369
       O     9.67301  -14.66593   14.43221
      H1     9.20404  -15.11746   15.18321
       H    10.58446  -16.02449   14.07931
       O    11.23041  -16.79578   14.06753
      H1    10.83345  -17.45090   13.49806
       H     7.82226  -16.61615   15.55991
       O     8.46719  -16.27212   16.19909
      H1     7.98661  -15.73027   16.85682
       H    12.45330  -16.93124   19.45621
       O    11.61096  -17.43057   19.50508
      H1    10.93787  -16.73496   19.33868
       H    10.51308  -18.46578   16.57957
       O    11.26875  -18.72916   16.05601
      H1    11.43523  -17.94852   15.49780
       H    10.47310  -19.80411   20.08206
       O     9.51803  -19.58281   19.93214
      H1     9.51253  -19.24040   19.02125
       H    14.12315  -19.12803   16.70417
       O    13.59800  -18.94034   17.50108
      H1    12.78877  -18.57278   17.26611

