24
frame 8 | Written by MDAnalysis XYZWriter (release 2.4.3)
       H     7.70135   10.97117   -1.69117
       O     6.78579   10.75873   -1.85726
      H1     6.60523   11.05103   -2.74943
       H     7.49458   12.31968   -5.62486
       O     8.27967   12.78606   -5.24378
      H1     7.97550   13.48989   -4.64300
       H    10.51555    8.00959   -2.83370
       O    11.16612    8.52291   -2.32405
      H1    10.67446    8.74214   -1.51293
       H    10.97985   11.40864   -3.94192
       O    10.11765   11.07358   -3.98912
      H1     9.63023   11.79709   -4.56142
       H    12.07237   11.58403   -2.38876
       O    12.62234   10.82977   -2.61946
      H1    11.98077   10.13663   -2.74388
       H     9.53240   11.21496   -2.31632
       O     9.16479   11.59429   -1.49319
      H1     9.90489   11.69830   -0.84821
       H    10.67487   14.16436   -5.44543
       O    11.02356   14.67108   -4.75146
      H1    10.95800   15.57122   -5.07761
       H    10.77017    7.81575   -5.08460
       O    11.04527    8.68935   -5.49549
      H1    10.50026    9.29770   -4.89649

