24
frame 7 | Written by MDAnalysis XYZWriter (release 2.4.3)
       H     0.22219  -18.03371  -15.56083
       O     1.07603  -18.41949  -15.49779
      H1     1.00409  -19.09777  -14.88043
       H     1.42843  -15.80506  -15.37406
       O     1.97475  -15.15076  -15.86983
      H1     2.85356  -15.26770  -15.44099
       H     2.44854  -15.73412  -17.29842
       O     3.09718  -16.08379  -17.94606
      H1     3.54379  -15.26128  -18.20981
       H    -4.42121  -18.19880  -17.97544
       O    -3.53771  -18.18084  -18.29749
      H1    -3.52898  -17.53001  -19.00698
       H    -2.86318  -12.81834  -17.61112
       O    -3.65491  -13.35040  -17.70493
      H1    -3.60310  -14.21687  -17.26148
       H    -0.39184  -16.47186  -18.55737
       O    -0.54491  -15.72807  -19.13416
      H1     0.17174  -15.84692  -19.82323
       H    -2.14488  -15.78264  -16.30449
       O    -2.63939  -15.07924  -15.81170
      H1    -3.23031  -15.46776  -15.11941
       H    -1.59476  -18.29268  -15.78585
       O    -1.68907  -17.52856  -16.38052
      H1    -2.34472  -17.83734  -17.01518

