24
frame 8 | Written by MDAnalysis XYZWriter (release 2.4.3)
       H     9.26123    8.55062   16.36766
       O     9.13155    7.65491   16.69531
      H1     8.69149    7.70796   17.51295
       H     5.98936    5.61193   17.67833
       O     5.17688    6.11855   17.74988
      H1     4.97483    6.40706   16.86201
       H     3.28484    5.74827   19.00398
       O     2.94444    5.76161   19.92633
      H1     3.02963    6.68540   20.15395
       H     3.56766    6.66399   15.09134
       O     4.34676    7.20184   15.33425
      H1     3.92476    8.09765   15.51023
       H     8.41974    4.43015   18.28191
       O     7.66344    4.98352   18.58008
      H1     7.35984    4.58448   19.38822
       H     8.35336    6.66230   19.08521
       O     8.56777    7.54953   19.41206
      H1     9.34645    7.44039   19.97643
       H     5.49093    7.87971   18.10351
       O     5.63779    8.82181   17.93571
      H1     6.48124    9.04655   18.37136
       H     6.90290    8.34968   14.75415
       O     6.42907    9.10748   15.09329
      H1     5.97566    8.73765   15.88462

