24
frame 7 | Written by MDAnalysis XYZWriter (release 2.4.3)
       H    14.03936    4.76157    3.02724
       O    14.43196    4.43049    2.21929
      H1    14.68222    3.50501    2.24475
       H    14.35936    3.03852    4.86420
       O    15.23640    2.69785    4.91783
      H1    15.59794    3.03271    5.70647
       H    17.11609    2.78564    1.41019
       O    17.55957    3.56975    1.06656
      H1    18.43123    3.24035    0.80778
       H    14.78660    1.03453   -0.05933
       O    14.51538    1.68209   -0.76772
      H1    15.10787    2.40990   -0.55577
       H    15.49558    1.95568    3.26280
       O    15.67138    1.82486    2.33727
      H1    15.65845    0.91654    2.01558
       H    13.91372   -1.37254    3.84965
       O    14.18626   -0.46109    3.72715
      H1    13.35107    0.04652    3.65280
       H    15.17577   -1.00884    0.89505
       O    14.76238   -0.18185    1.03161
      H1    14.57532   -0.24057    1.96578
       H    16.57153    0.36055    6.24707
       O    15.94155   -0.18788    5.79333
      H1    15.57630    0.33489    5.04334

