24
frame 8 | Written by MDAnalysis XYZWriter (release 2.4.3)
       H   -16.28317   14.09055    2.69707
       O   -16.48071   13.27773    3.19352
      H1   -15.65329   12.87651    3.15313
       H   -18.27054   11.36103    6.14994
       O   -18.06949   10.99036    7.05561
      H1   -17.96274   11.69762    7.71844
       H   -18.23407   15.42761    2.86795
       O   -19.08669   15.85911    2.88683
      H1   -19.67436   15.17455    3.28365
       H   -19.95538    9.89439    2.26483
       O   -19.87987    9.79903    3.21180
      H1   -19.18646    9.11473    3.36640
       H   -17.98944   12.30129    4.08120
       O   -18.62492   11.90690    4.67187
      H1   -18.89344   11.11082    4.14363
       H   -18.58693   13.30381    9.21604
       O   -17.86019   13.22171    8.56132
      H1   -18.15187   13.78044    7.81437
       H   -14.65324   13.48673    5.59473
       O   -15.22629   12.93415    6.17097
      H1   -15.03095   11.99409    6.02295
       H   -18.14470   15.31662    6.08829
       O   -18.77772   14.75695    6.54497
      H1   -19.24475   15.37884    7.07308

