24
frame 7 | Written by MDAnalysis XYZWriter (release 2.4.3)
       H   -15.19838  -18.63489   11.80269
       O   -15.61304  -17.92772   12.34124
      H1   -14.91493  -17.46217   12.84294
       H   -11.20612  -14.56424    7.58514
       O   -10.52263  -15.02339    8.05624
      H1   -11.02421  -15.64824    8.59383
       H   -11.82853  -19.25892    7.25497
       O   -12.08636  -18.60509    6.59198
      H1   -12.60446  -19.12020    5.94181
       H   -12.24152  -16.77712   12.34239
       O   -12.63982  -16.81442   13.21657
      H1   -12.04150  -16.23456   13.76766
       H    -8.55726  -17.84531   10.69153
       O    -9.28188  -18.28934   10.26278
      H1    -8.96955  -18.49654    9.34160
       H   -13.17204  -17.90137    7.69764
       O   -13.58737  -17.47543    8.48485
      H1   -13.97877  -18.20501    9.01405
       H   -15.10086  -16.53482    7.28672
       O   -15.87607  -16.07795    6.89386
      H1   -16.17148  -15.57899    7.70238
       H   -10.88414  -17.33595   10.11219
       O   -11.62208  -16.74321   10.13593
      H1   -12.27452  -17.17154    9.54082

