24
frame 0 | Written by MDAnalysis XYZWriter (release 2.4.3)
       H    -7.98969   16.73037    4.70319
       O    -8.75701   16.75159    4.13872
      H1    -8.77416   15.92494    3.61729
       H   -13.04925   15.51270    4.31937
       O   -12.60988   16.36405    4.16480
      H1   -11.83732   16.34076    4.72611
       H    -9.01878   18.94588    6.23966
       O    -8.15183   18.95902    6.54383
      H1    -7.52470   19.18814    5.80041
       H    -9.89497   18.29765    3.15729
       O   -10.41383   19.07529    3.41376
      H1   -10.43985   18.88640    4.35708
       H   -10.24742   16.34266    7.07482
       O   -10.24922   15.82325    6.22746
      H1    -9.86436   16.38004    5.55564
       H    -9.60316   13.44472    3.54678
       O    -9.08731   13.90845    2.86862
      H1    -9.90705   14.11129    2.41667
       H    -6.76553   17.57689    1.68908
       O    -5.92157   17.56118    2.25409
      H1    -5.12798   17.81886    1.73673
       H    -6.12611   17.11196    5.93796
       O    -6.58235   16.27436    6.17355
      H1    -6.85057   16.28764    7.10563

