24
frame 7 | Written by MDAnalysis XYZWriter (release 2.4.3)
       H    16.91289    4.87993  -17.86997
       O    17.77779    4.83131  -17.47319
      H1    18.29883    5.38732  -18.09195
       H    16.39955    7.79541  -15.50992
       O    15.84644    8.59225  -15.35496
      H1    15.29906    8.68906  -16.13286
       H    18.45991    6.06998  -12.93768
       O    18.98143    5.47080  -12.36287
      H1    18.66252    4.58652  -12.54247
       H    16.57503    7.88608  -12.01488
       O    16.36073    7.19772  -12.61429
      H1    16.26975    7.54783  -13.48489
       H    19.35407    7.72444  -18.42287
       O    19.39940    6.91700  -19.06153
      H1    19.52794    7.33275  -19.92241
       H    17.83897    5.76500  -15.89744
       O    17.85690    6.31805  -15.13858
      H1    18.65576    6.77464  -15.32507
       H    15.92539    5.35842  -14.58796
       O    15.38539    4.59637  -14.33550
      H1    14.68577    4.84927  -13.77669
       H    18.10347    9.15692  -14.75773
       O    19.04999    9.01246  -14.75290
      H1    19.26304    9.10517  -15.67300

