24
frame 0 | Written by MDAnalysis XYZWriter (release 2.4.3)
       H   -15.04700   -5.86086    9.32931
       O   -15.70501   -6.53980    9.28091
      H1   -16.53341   -6.12539    8.96906
       H   -14.40791   -8.98513    7.45707
       O   -14.94279   -9.15423    8.22591
      H1   -15.11174   -8.26861    8.54693
       H   -15.78871   -1.62367   11.26996
       O   -15.83996   -2.57823   10.98563
      H1   -16.76640   -2.79965   10.82833
       H   -17.73349   -7.65291   10.50240
       O   -18.06758   -8.42188   10.96754
      H1   -18.94974   -8.57438   10.64310
       H   -17.86618   -8.70719    6.79198
       O   -17.52887   -9.05757    7.61661
      H1   -16.55847   -9.02067    7.66126
       H   -13.14196   -4.17477    9.59917
       O   -13.28805   -5.15293    9.33663
      H1   -12.65653   -5.17323    8.59269
       H   -18.30443   -4.47312    8.77344
       O   -17.55460   -4.73460    8.23045
      H1   -17.05484   -3.90267    8.20285
       H   -16.12051   -5.08771    5.25408
       O   -17.02504   -5.23354    5.51468
      H1   -17.14173   -5.07564    6.45758

