24
frame 8 | Written by MDAnalysis XYZWriter (release 2.4.3)
       H   -12.01957  -15.26478  -17.12638
       O   -12.33372  -14.43297  -16.76572
      H1   -11.55323  -13.88797  -16.81095
       H   -13.76634  -16.60803  -14.42552
       O   -12.94464  -16.13651  -14.55346
      H1   -12.99287  -15.48642  -15.22452
       H   -17.62490  -13.69594  -17.57191
       O   -17.28051  -14.54178  -17.23946
      H1   -16.40352  -14.32082  -16.84746
       H   -14.27848  -11.07900  -16.32367
       O   -15.10061  -11.57145  -16.50345
      H1   -15.77265  -10.87486  -16.25776
       H   -16.44623  -14.41868  -11.88657
       O   -16.31053  -13.67800  -12.46584
      H1   -15.37417  -13.52516  -12.57740
       H   -14.88984  -12.86464  -15.33819
       O   -14.87544  -13.83135  -15.05479
      H1   -14.41886  -13.78724  -14.20212
       H   -12.89526  -13.06341  -13.05824
       O   -13.57040  -13.73432  -12.74843
      H1   -13.28629  -14.62121  -13.00794
       H   -18.61668  -12.71878  -14.40268
       O   -18.23682  -11.95917  -13.85659
      H1   -17.54105  -12.38095  -13.35403

