24
frame 8 | Written by MDAnalysis XYZWriter (release 2.4.3)
       H    18.92300    4.00734    5.79598
       O    18.42168    3.16967    5.77670
      H1    17.56380    3.53791    6.09812
       H    18.82413    6.55133    6.18431
       O    19.58593    5.99977    6.28658
      H1    20.27240    6.42703    5.77552
       H    19.40747    5.97085   10.47343
       O    19.30057    5.80996   11.44865
      H1    19.61115    4.90075   11.55345
       H    19.10339    2.35099    9.05721
       O    19.81148    2.38360    8.40727
      H1    19.24767    2.38364    7.60855
       H    16.12652    1.70128    9.11065
       O    15.51181    2.40295    8.90967
      H1    14.74731    1.99098    9.33823
       H    16.40932   -0.67396   11.20163
       O    16.89831    0.13134   11.13878
      H1    17.77214   -0.11115   10.91624
       H    18.25901    0.15190    7.16954
       O    17.55418    0.67194    6.67517
      H1    17.93123    1.54343    6.55066
       H    16.88791    3.18934   10.86902
       O    17.13702    2.77830   11.71801
      H1    17.05164    1.82262   11.61186

