24
frame 8 | Written by MDAnalysis XYZWriter (release 2.4.3)
       H   -19.34711    7.27240    1.81010
       O   -18.60239    6.77181    2.19817
      H1   -17.79699    7.03626    1.72995
       H   -16.25385    5.42557    3.93513
       O   -16.75032    4.67095    4.20150
      H1   -16.31915    4.31186    5.01303
       H   -19.95538    9.89439    2.26483
       O   -19.87987    9.79903    3.21180
      H1   -19.18646    9.11473    3.36640
       H   -18.22438    7.25065    4.04187
       O   -18.20896    7.91068    4.77938
      H1   -17.25776    8.03486    4.85766
       H   -18.59676    4.82292    1.79531
       O   -18.47875    3.87301    1.99160
      H1   -18.12715    3.99302    2.90382
       H   -17.01850    7.46876    8.20972
       O   -17.18426    6.54382    8.03065
      H1   -18.17798    6.48853    7.83942
       H   -14.40568    6.75287    4.84960
       O   -15.19348    7.31563    4.76257
      H1   -15.04451    7.77469    3.93399
       H   -15.69094    6.14091    0.36875
       O   -16.19794    6.87088    0.76864
      H1   -16.53336    7.34422   -0.03700

