24
frame 8 | Written by MDAnalysis XYZWriter (release 2.4.3)
       H    11.74360   -9.91224  -11.61782
       O    11.43109   -8.99096  -11.40220
      H1    12.04271   -8.34078  -11.71804
       H    11.71410   -8.63611   -9.82082
       O    11.89296   -8.38367   -8.92242
      H1    12.83564   -8.44670   -8.70546
       H    12.45952   -9.45562   -6.39652
       O    12.98910   -8.80970   -5.91636
      H1    13.57135   -9.24059   -5.24334
       H    14.56361   -9.61568   -8.13945
       O    14.54703   -8.71178   -8.56089
      H1    14.79535   -8.24952   -7.74227
       H     9.06667   -8.12212   -7.81821
       O     8.30352   -7.53019   -7.89789
      H1     8.61010   -6.89914   -8.54926
       H    13.03842   -6.28303   -8.72366
       O    13.40575   -5.46338   -8.51747
      H1    12.67724   -4.95178   -8.02863
       H    13.91466   -6.33804  -11.63796
       O    13.11911   -6.80501  -11.68139
      H1    12.46183   -6.22805  -11.16719
       H    10.90382   -9.16746   -7.73162
       O    10.13643   -9.49054   -7.31655
      H1    10.10930  -10.48370   -7.43765

