24
frame 7 | Written by MDAnalysis XYZWriter (release 2.4.3)
       H   -11.43188   19.71484   -5.07633
       O   -10.79515   18.98592   -4.86188
      H1   -11.22470   18.22550   -5.25278
       H   -11.22829   19.70018   -9.24685
       O   -11.05680   19.37860   -8.35812
      H1   -11.98746   19.46453   -8.00913
       H   -14.12846   14.79294   -4.39604
       O   -14.13243   14.84404   -5.38083
      H1   -13.19794   14.62450   -5.63733
       H    -9.74423   16.56253   -7.03074
       O   -10.42689   16.52404   -7.66734
      H1   -11.10490   17.13179   -7.33065
       H   -13.38694   17.37278   -7.30896
       O   -12.71475   17.46856   -6.60608
      H1   -12.74677   16.58280   -6.17902
       H   -12.69905   13.85550   -7.56374
       O   -12.01278   14.28598   -6.97120
      H1   -11.52097   14.89967   -7.53017
       H   -15.32525   18.72504   -5.66371
       O   -14.53177   18.63729   -5.09253
      H1   -13.97885   18.10161   -5.61632
       H   -15.00485   17.90670   -9.42451
       O   -14.15479   17.47408   -9.12611
      H1   -14.14169   16.76017   -9.75838

