24
frame 8 | Written by MDAnalysis XYZWriter (release 2.4.3)
       H    -1.77607   -0.22185   12.19592
       O    -2.22430   -0.53440   12.96560
      H1    -2.18228    0.10830   13.67708
       H     2.95342   -0.35137   10.87709
       O     3.56538   -0.86001   10.35075
      H1     4.40121   -0.34389   10.29190
       H     2.70571   -0.90193   13.67888
       O     3.23265   -1.54629   14.20116
      H1     3.93691   -1.14434   14.70109
       H     0.24601   -0.48135   14.43766
       O     0.06853   -0.41917   15.37798
      H1     0.65210   -0.97544   15.87209
       H    -1.25081    0.07791   10.10076
       O    -1.00115    0.84750   10.63142
      H1    -0.14843    0.97870   10.26651
       H     0.77900   -1.05157   12.18030
       O     1.22788   -0.36060   12.68120
      H1     0.94411    0.53762   12.53143
       H     2.48386    3.17311   13.46693
       O     1.71487    2.54675   13.39784
      H1     1.01828    3.04528   12.93049
       H     0.13109    3.53397   10.99982
       O    -0.31534    3.52867   11.85453
      H1    -1.27175    3.53176   11.70143

