24
frame 7 | Written by MDAnalysis XYZWriter (release 2.4.3)
       H   -11.87323  -16.85521  -11.90721
       O   -11.31581  -16.20511  -11.46140
      H1   -10.75955  -16.62578  -10.76489
       H   -13.12351  -17.42584  -14.66712
       O   -12.32897  -17.09709  -14.24479
      H1   -11.92177  -16.61769  -15.00900
       H   -14.53429  -19.38050   -8.00560
       O   -13.77014  -18.92621   -8.34670
      H1   -13.64582  -18.05774   -7.93493
       H   -16.55649  -15.43320  -12.96994
       O   -15.91345  -15.78237  -13.52877
      H1   -15.65471  -15.09488  -14.14107
       H   -12.99217  -19.07077  -11.91675
       O   -13.92127  -18.81496  -12.01232
      H1   -14.07058  -18.68458  -12.98028
       H   -10.69996  -17.93716  -14.02824
       O    -9.77408  -18.21916  -13.89851
      H1    -9.28772  -17.40044  -13.72711
       H   -15.16470  -18.91975  -14.91417
       O   -14.67593  -18.24016  -14.40832
      H1   -15.31755  -17.51765  -14.21070
       H   -14.73442  -17.70521   -9.93916
       O   -15.60087  -17.38210  -10.22510
      H1   -15.54517  -17.56716  -11.17667

