24
frame 7 | Written by MDAnalysis XYZWriter (release 2.4.3)
       H    16.62317   14.76759   -3.13701
       O    16.04475   14.86187   -3.87906
      H1    15.25065   14.42919   -3.60096
       H    16.74928   15.60271   -7.18691
       O    17.19542   15.93973   -6.40091
      H1    16.87659   15.48042   -5.57124
       H    14.10685   19.01396   -1.26556
       O    14.57425   19.61792   -1.79442
      H1    14.82437   19.08512   -2.61805
       H    11.03868   17.82310   -2.13093
       O    11.10702   18.48340   -2.87158
      H1    11.96082   18.87417   -2.71865
       H    13.13485   19.63295   -5.88972
       O    13.67961   18.86315   -5.57169
      H1    13.42084   18.19324   -6.20214
       H    17.14731   18.23252   -3.41288
       O    18.00658   18.50089   -3.03107
      H1    18.17200   19.28038   -3.48844
       H    14.72703   17.74956   -4.34679
       O    15.45838   17.69166   -3.67701
      H1    15.68381   16.76760   -3.57668
       H    13.90389   15.47103   -6.72433
       O    13.41406   16.28872   -6.53099
      H1    12.61979   15.96506   -6.12566

