24
frame 8 | Written by MDAnalysis XYZWriter (release 2.4.3)
       H    -0.43340    5.09295   -6.61007
       O     0.08151    5.22989   -7.42927
      H1    -0.35056    4.70086   -8.08364
       H     0.10837    6.62853  -12.42091
       O    -0.89238    6.50467  -12.30606
      H1    -0.87665    5.69712  -11.83024
       H    -2.81103    7.37759  -10.25642
       O    -3.65060    6.95953  -10.41473
      H1    -3.94304    7.33424  -11.23834
       H    -0.42716    2.80950   -9.15148
       O     0.43529    3.16705   -9.17512
      H1     0.49726    3.55663  -10.10356
       H    -2.81198    3.92757  -11.05014
       O    -2.51018    4.54115  -10.38784
      H1    -3.09979    5.30594  -10.36044
       H    -2.42208    1.27050  -11.45026
       O    -2.74021    1.94596  -12.10043
      H1    -3.66606    2.10717  -12.11087
       H    -3.37796    4.77117   -7.45645
       O    -2.80183    4.05783   -7.73331
      H1    -2.66101    4.24133   -8.67636
       H    -4.93691    2.77123  -10.37743
       O    -5.21605    2.81034  -11.28783
      H1    -5.59115    3.68246  -11.31762

