24
frame 8 | Written by MDAnalysis XYZWriter (release 2.4.3)
       H   -13.84291   -1.65753  -16.49834
       O   -14.27579   -0.83576  -16.68734
      H1   -14.56162   -0.38693  -15.86979
       H    -9.62231   -1.63317  -15.50646
       O    -9.58120   -2.53009  -15.09799
      H1   -10.44137   -2.75166  -14.71437
       H    -9.84418    4.15123  -18.00548
       O    -9.76688    3.39791  -17.37152
      H1   -10.67811    3.16636  -17.14803
       H   -10.40682    0.74108  -19.27087
       O    -9.89840    1.54420  -19.38821
      H1    -9.98045    2.11132  -18.61838
       H   -10.02551   -1.37712  -13.53769
       O   -10.15275   -0.50158  -13.19557
      H1    -9.30734   -0.01221  -13.31900
       H   -11.13613   -0.70604  -17.36779
       O   -11.05140   -0.44862  -16.43235
      H1   -11.40035   -1.17428  -15.88768
       H   -12.80965    2.57387  -16.22759
       O   -12.06825    2.15075  -16.71241
      H1   -11.93532    1.24119  -16.34612
       H   -15.16611    1.50963  -14.64502
       O   -14.65159    0.72696  -14.30346
      H1   -13.73357    1.03172  -14.09158

