24
frame 8 | Written by MDAnalysis XYZWriter (release 2.4.3)
       H     5.78349  -13.58951  -12.89172
       O     4.85259  -13.43039  -13.04591
      H1     4.80504  -12.51588  -13.37686
       H     3.82957  -11.26719  -15.27130
       O     3.68274  -11.42419  -16.19645
      H1     2.77468  -11.79759  -16.25156
       H     2.74736   -9.38766  -16.01359
       O     3.03896   -8.47051  -15.99370
      H1     3.97061   -8.47927  -15.63541
       H     5.81699   -8.59911  -14.05636
       O     5.98427   -8.22492  -14.90084
      H1     6.06159   -7.28234  -14.84047
       H     4.54452  -10.23223  -12.88239
       O     4.13169  -10.84265  -13.54217
      H1     3.18007  -10.95107  -13.22239
       H     3.65282   -8.49417  -11.48736
       O     4.39079   -8.53526  -12.18601
      H1     5.15198   -8.08958  -11.74024
       H     4.07446  -12.63413   -9.80422
       O     4.23409  -13.43083  -10.30473
      H1     4.25450  -13.32130  -11.28907
       H     0.87416  -11.63021  -12.85964
       O     1.17390  -10.84430  -12.30576
      H1     0.67017  -10.04950  -12.61836

