24
frame 7 | Written by MDAnalysis XYZWriter (release 2.4.3)
       H   -13.45439   10.02129    6.84627
       O   -12.86167    9.97203    7.60134
      H1   -12.95129    9.06156    7.87878
       H   -12.32998    7.36503   10.66658
       O   -11.70483    6.87277   10.05008
      H1   -10.87407    7.04388   10.43735
       H   -10.35527    4.89942    7.36800
       O   -10.32947    3.97244    7.62429
      H1    -9.42471    3.96953    8.07857
       H    -8.73721    5.46095   12.56512
       O    -9.35171    5.96008   12.00057
      H1    -9.98752    5.27879   11.68622
       H   -11.97993    4.05148   11.02314
       O   -11.17189    3.80494   11.51580
      H1   -11.52617    3.75344   12.42477
       H    -8.26684    6.67850   10.72977
       O    -7.83628    6.86268    9.84362
      H1    -6.90582    6.98351    9.87718
       H   -13.89495    8.72998   11.48641
       O   -13.01163    8.47429   11.70085
      H1   -13.04492    8.08813   12.59411
       H   -12.52268    5.90863    8.75945
       O   -12.98383    5.27845    8.14273
      H1   -12.64977    4.44504    8.54770

