24
frame 0 | Written by MDAnalysis XYZWriter (release 2.4.3)
       H    13.88136  -17.37153   14.29724
       O    13.89706  -17.84454   15.14535
      H1    13.04511  -17.73639   15.54782
       H    15.81044  -16.57988   12.47866
       O    16.36813  -17.12622   11.94888
      H1    17.23235  -17.23353   12.40607
       H    10.29524  -16.54929   12.43570
       O    10.78405  -17.37490   12.19883
      H1    10.53520  -17.97594   12.94578
       H    13.01424  -14.85423    9.95432
       O    13.10098  -13.90049   10.12374
      H1    12.18519  -13.58819    9.88127
       H    14.71152  -14.37419   15.12952
       O    14.01863  -14.10644   14.55292
      H1    14.44920  -13.86352   13.70222
       H    13.73411  -16.50095   10.69541
       O    13.88401  -16.80049    9.76982
      H1    14.74183  -16.34157    9.47232
       H    15.43643  -12.30314   12.11750
       O    15.37941  -13.26529   12.07201
      H1    14.68007  -13.48469   11.48810
       H    12.38215  -16.69878   12.42739
       O    13.26698  -16.24794   12.61693
      H1    12.93806  -15.52118   13.17606

