24
frame 7 | Written by MDAnalysis XYZWriter (release 2.4.3)
       H    18.16067   18.01929  -16.92778
       O    18.92412   17.41765  -17.20632
      H1    18.95321   17.35050  -18.19109
       H    13.43087   11.94143  -17.28076
       O    14.26832   12.50015  -17.38603
      H1    14.64001   12.36444  -16.46952
       H    16.98962   14.54982  -16.34872
       O    16.85936   14.66504  -15.37103
      H1    16.20570   14.01464  -15.13962
       H    17.17479   10.69425  -16.77465
       O    17.36376   11.60149  -16.46818
      H1    17.10073   12.11725  -17.18798
       H    16.23330   12.00770  -15.04433
       O    15.40280   12.43108  -14.71516
      H1    15.28024   12.00426  -13.90167
       H    13.12761   13.81670  -17.10413
       O    12.63527   14.62049  -17.22402
      H1    13.15796   15.13921  -17.86412
       H    13.81829   11.98503  -18.89724
       O    13.67935   11.85145  -19.85322
      H1    14.40469   11.30437  -20.18236
       H    16.14195   14.12748  -18.82212
       O    16.90372   13.82569  -18.27989
      H1    17.64710   14.38817  -18.55289

