24
frame 8 | Written by MDAnalysis XYZWriter (release 2.4.3)
       H    -6.76834   -8.88879    4.82843
       O    -6.68283   -8.51581    5.68209
      H1    -7.45727   -8.10368    5.98642
       H    -8.47831  -11.23120    6.00983
       O    -8.74338  -11.39602    5.10035
      H1    -9.52753  -11.96796    5.07122
       H    -9.71805   -8.84994    1.31554
       O   -10.45790   -8.65929    1.93769
      H1   -10.92941   -9.51714    1.97104
       H   -12.30403  -10.92640    3.54963
       O   -11.96996  -11.11665    2.67674
      H1   -11.37425  -11.89550    2.85565
       H   -12.46368  -11.10845    5.64223
       O   -13.00539  -10.46460    5.16007
      H1   -12.37761   -9.71370    5.01060
       H   -10.11168   -9.74465    5.12078
       O   -10.41340   -8.82543    4.89947
      H1   -10.25025   -8.66357    3.94973
       H   -12.22852  -12.64380    7.22024
       O   -11.68158  -12.60908    6.42971
      H1   -12.05439  -13.18598    5.79101
       H    -8.60805   -7.40269    7.28104
       O    -9.05600   -7.11935    6.41309
      H1    -9.44986   -7.84942    5.92452

