24
frame 9 | Written by MDAnalysis XYZWriter (release 2.4.3)
       H     8.45460  -14.12572   -3.36302
       O     8.26542  -14.82305   -4.04534
      H1     8.58155  -14.43579   -4.89198
       H     9.13407  -10.50885   -4.11929
       O     9.55383  -11.37150   -4.20071
      H1    10.02213  -11.38330   -5.03073
       H     6.38180  -14.90876   -7.89149
       O     6.87527  -15.62733   -7.48719
      H1     7.36204  -16.01607   -8.21233
       H    10.60016  -17.47788   -7.27213
       O    11.11915  -16.95123   -6.65710
      H1    10.52626  -16.17627   -6.38908
       H     8.81868  -12.20464   -8.37916
       O     9.76794  -12.33469   -8.37367
      H1    10.04799  -12.50974   -9.26006
       H    13.61490  -15.33708   -7.54184
       O    12.90570  -15.61958   -8.09949
      H1    12.25107  -15.91050   -7.46908
       H    11.45477   -9.73295   -8.21883
       O    10.89432  -10.12627   -7.56392
      H1    10.44380  -10.93281   -7.99977
       H     8.35765  -14.82740   -7.12371
       O     9.30911  -14.75220   -6.76224
      H1     9.78861  -13.94047   -7.04419

