24
frame 8 | Written by MDAnalysis XYZWriter (release 2.4.3)
       H    17.09208   18.69385   13.26489
       O    17.06586   18.00156   13.92608
      H1    17.92022   18.16201   14.33808
       H    18.77361   17.28753   16.00983
       O    19.21475   18.01995   15.55910
      H1    19.96341   17.59572   15.15138
       H    18.09322   20.13418   17.89227
       O    17.90483   19.86583   17.00914
      H1    18.32862   19.04787   16.73292
       H    15.16850   18.16265   19.40094
       O    14.57355   17.37355   19.22097
      H1    13.68623   17.72108   18.89389
       H    18.41800   18.41221   19.62060
       O    18.60223   17.50345   19.39559
      H1    17.87522   17.38631   18.77891
       H    14.75524   14.48351   18.46028
       O    15.56616   15.09936   18.52883
      H1    15.20024   15.89706   18.95636
       H    16.59285   17.11935   15.67621
       O    16.82574   16.87148   16.58284
      H1    16.07293   16.49169   17.01268
       H    18.27320   13.84508   16.67366
       O    18.17044   14.07110   17.64364
      H1    17.34645   14.56833   17.64734

