24
frame 8 | Written by MDAnalysis XYZWriter (release 2.4.3)
       H    12.49098  -11.61202   15.31595
       O    13.40381  -11.40459   15.45873
      H1    13.44869  -10.54000   15.89032
       H    11.39209   -5.97505   14.44408
       O    11.54377   -6.43333   13.63349
      H1    10.87741   -7.11581   13.48174
       H    13.98827   -8.11180   15.21133
       O    14.12660   -7.84049   14.29315
      H1    13.76196   -6.98396   14.11720
       H    14.49518   -9.45451   17.34748
       O    13.78103   -9.14663   16.81564
      H1    13.14684   -8.74732   17.42021
       H    13.59157   -6.70025   11.82197
       O    14.38767   -6.16265   11.68986
      H1    14.26848   -5.38142   12.27835
       H    13.99712   -8.64503   12.58774
       O    14.07187   -9.19854   11.82197
      H1    14.96063   -9.07387   11.53791
       H    17.52958   -8.43622   14.02084
       O    16.95019   -9.19460   14.17733
      H1    16.05988   -8.84665   14.01408
       H    15.65847   -4.61041   15.67422
       O    16.48524   -5.01923   16.04095
      H1    17.26540   -4.79450   15.54001

