24
frame 9 | Written by MDAnalysis XYZWriter (release 2.4.3)
       H    17.48812    4.71738    6.11123
       O    17.18439    3.88565    5.68701
      H1    16.55573    3.57038    6.28910
       H    16.00598    6.86443   10.64890
       O    15.10450    7.19343   10.89286
      H1    14.61356    6.43030   11.24011
       H    15.29319    3.70880    8.86942
       O    15.42603    4.17480    8.00276
      H1    15.08881    5.09415    8.14876
       H    18.18743    7.33247   10.29069
       O    17.60805    6.79969    9.80808
      H1    18.05473    6.92854    8.95372
       H    13.97938    3.93582    5.40686
       O    14.07301    3.10772    5.91301
      H1    14.56670    3.50137    6.64329
       H    16.27163    1.64853    9.93592
       O    15.59688    2.32336   10.09630
      H1    14.70008    1.98697    9.84918
       H    15.45308    7.02651    5.99626
       O    16.27697    7.31271    5.49912
      H1    16.06073    7.02384    4.61399
       H    14.12641    7.43777    8.04404
       O    14.99654    7.08915    8.12373
      H1    15.19628    7.07912    9.06944

