24
frame 9 | Written by MDAnalysis XYZWriter (release 2.4.3)
       H    16.23105   -4.91300  -11.38745
       O    15.64775   -5.61973  -11.76476
      H1    15.92729   -6.44641  -11.29359
       H    13.44081  -10.91304  -10.90594
       O    14.15973  -11.35170  -11.41642
      H1    14.24012  -12.19658  -10.97970
       H    14.52829  -10.51015   -8.26047
       O    14.83558   -9.56199   -8.31951
      H1    15.28664   -9.46437   -7.48074
       H    16.05927   -8.15360  -14.59999
       O    15.37084   -8.81400  -14.60010
      H1    14.94625   -8.69856  -15.45667
       H    15.56597   -9.04043  -11.79693
       O    15.81048   -8.36720  -11.19429
      H1    15.55523   -8.58642  -10.30522
       H    18.74805   -6.97850   -8.78469
       O    17.91660   -7.10939   -9.27464
      H1    17.93129   -7.95308   -9.80070
       H    18.75514  -10.02778  -11.23581
       O    18.35696   -9.14294  -11.15851
      H1    17.48587   -9.12275  -11.53696
       H    13.84717   -6.24948  -11.47949
       O    12.97511   -6.70717  -11.51215
      H1    12.28173   -6.03822  -11.27218

