24
frame 9 | Written by MDAnalysis XYZWriter (release 2.4.3)
       H    12.92700   12.80723  -16.31428
       O    13.74226   13.30984  -16.40832
      H1    14.31117   13.07930  -15.67603
       H     7.43598    9.43800  -16.83813
       O     8.37271    9.06261  -16.84625
      H1     9.02658    9.73802  -17.02987
       H    10.56383    6.28089  -19.07242
       O     9.90394    5.85277  -18.54032
      H1    10.28539    6.03947  -17.67468
       H     9.83664   11.30725  -19.69910
       O    10.03496   10.54881  -19.10706
      H1    10.93713   10.28521  -19.24450
       H    14.17017   12.34749  -17.90230
       O    14.44635   11.94116  -18.71748
      H1    15.32046   11.62229  -18.59705
       H    13.67989    6.93242  -18.64921
       O    13.04918    7.21150  -19.32439
      H1    12.79199    6.38797  -19.74180
       H    10.61949   12.86598  -17.01457
       O    11.34293   12.19338  -17.16453
      H1    10.82384   11.58848  -17.69217
       H    13.22531   10.54541  -18.86702
       O    12.64980    9.93179  -19.30548
      H1    13.07381    9.09054  -19.40660

