24
frame 8 | Written by MDAnalysis XYZWriter (release 2.4.3)
       H   -17.41985  -15.23574  -10.41940
       O   -17.11701  -15.97208  -10.95982
      H1   -16.71480  -16.50573  -10.25295
       H   -11.23231  -16.44137  -11.92067
       O   -11.38459  -16.40928  -10.98008
      H1   -10.53431  -16.56546  -10.55770
       H   -13.76634  -16.60803  -14.42552
       O   -12.94464  -16.13651  -14.55346
      H1   -12.99287  -15.48642  -15.22452
       H   -17.64869  -16.02425  -12.59028
       O   -17.87421  -16.07450  -13.56406
      H1   -17.93902  -15.14598  -13.86444
       H   -13.65290  -19.29108  -11.53276
       O   -14.61076  -19.10949  -11.71423
      H1   -14.72292  -18.56445  -12.48566
       H   -11.50448  -18.46298  -11.40562
       O   -11.88434  -19.29371  -11.12700
      H1   -11.14033  -19.88119  -11.06425
       H   -15.48769  -18.53907  -14.62545
       O   -15.35082  -17.75402  -14.11447
      H1   -16.24479  -17.45832  -13.96917
       H   -15.28745  -17.88825   -8.85359
       O   -15.91092  -17.95196   -9.55729
      H1   -15.40730  -18.28767  -10.25646

