24
frame 9 | Written by MDAnalysis XYZWriter (release 2.4.3)
       H   -13.19902   18.80906  -18.31744
       O   -12.49485   18.22393  -18.63435
      H1   -11.67117   18.65394  -18.42271
       H    -4.03415   16.83781  -17.38975
       O    -4.44774   16.03924  -17.20108
      H1    -4.74483   15.60690  -17.99628
       H    -7.00541   18.46383  -17.51690
       O    -7.04148   19.42276  -17.66397
      H1    -7.11755   19.64220  -18.61081
       H    -6.75139   17.46378  -13.74045
       O    -6.58198   16.65655  -14.23623
      H1    -6.58951   16.84649  -15.20385
       H    -6.29134   16.31824  -17.08443
       O    -7.11995   16.80742  -16.97798
      H1    -7.73134   16.29461  -17.44117
       H   -10.63012   15.55732  -18.54008
       O   -10.16728   15.17221  -19.29069
      H1    -9.69947   15.90880  -19.68059
       H    -3.71115   19.46581  -18.02623
       O    -3.22718   18.64737  -17.99571
      H1    -3.11551   18.42956  -18.89317
       H   -10.12637   19.90446  -16.66630
       O   -10.24970   19.80365  -17.62710
      H1    -9.48260   19.36925  -18.01921

