24
frame 8 | Written by MDAnalysis XYZWriter (release 2.4.3)
       H    -7.40354   -8.45060  -17.62774
       O    -7.84109   -9.17592  -18.10238
      H1    -7.49740   -9.03253  -18.95548
       H    -9.26292   -4.41158  -15.42032
       O    -9.23864   -5.29670  -15.75642
      H1    -9.78304   -5.31482  -16.55168
       H   -10.78335   -8.63978  -18.66709
       O   -10.14186   -7.92058  -18.25276
      H1    -9.30286   -8.43547  -18.14014
       H   -12.61283   -8.73126  -16.52986
       O   -12.57451   -7.88665  -16.98029
      H1   -11.82035   -7.75183  -17.58768
       H   -11.54093  -10.17695  -19.90816
       O   -11.37329  -10.24084  -18.95708
      H1   -10.85559  -11.02071  -18.81552
       H   -14.94250   -5.98560  -17.10179
       O   -15.06851   -6.92921  -17.03213
      H1   -14.09719   -7.18488  -17.06410
       H   -11.79753   -7.09717  -15.67422
       O   -11.32649   -6.66385  -14.92898
      H1   -10.47222   -6.41838  -15.36573
       H   -11.96137  -10.66555  -16.94042
       O   -12.49812  -10.42695  -16.15787
      H1   -12.04631  -10.92324  -15.46852

