24
frame 9 | Written by MDAnalysis XYZWriter (release 2.4.3)
       H     2.20976   15.97693   15.86666
       O     1.79391   15.64274   16.66058
      H1     2.45614   15.41279   17.26449
       H     0.50286   18.82821   13.42887
       O     0.15589   18.59534   14.31038
      H1     0.18593   17.61629   14.34464
       H    -0.40404   15.12782   14.97065
       O    -0.58135   15.84145   14.29449
      H1    -0.72582   15.28077   13.48937
       H     1.27931   18.63144   15.75777
       O     2.17371   18.57430   16.13890
      H1     2.13642   17.71430   16.62853
       H    -1.52616   19.05473   13.11414
       O    -2.27720   19.63616   12.81576
      H1    -2.36513   20.20717   13.60367
       H    -2.43784   18.28578   16.98716
       O    -2.69210   18.50745   16.06618
      H1    -3.12246   17.69010   15.77842
       H     0.74077   19.56190   19.11918
       O     0.63694   19.54892   18.15528
      H1     1.28265   18.87110   17.84337
       H     2.81830   17.26111   13.91277
       O     2.65216   16.32160   14.12810
      H1     2.15117   15.91356   13.35303

