24
frame 10 | Written by MDAnalysis XYZWriter (release 2.4.3)
       H    12.69381   18.87125  -12.70256
       O    12.41292   18.22184  -12.06103
      H1    12.11639   17.55782  -12.68514
       H     8.77370   16.89556  -11.92321
       O     8.80386   16.34449  -12.72474
      H1     8.74268   15.48360  -12.37644
       H    10.13152   16.80508  -16.53704
       O     9.41560   16.24285  -16.79383
      H1     8.63673   16.63442  -16.40038
       H    12.76197   15.12390  -16.40962
       O    12.46281   15.99950  -16.27967
      H1    12.35507   16.31762  -17.18662
       H    11.25547   16.11922  -14.66929
       O    11.20029   16.47353  -13.82327
      H1    10.26885   16.40225  -13.54951
       H    10.22058   19.31859  -15.44390
       O    11.05095   19.34612  -14.97357
      H1    11.14095   18.47024  -14.54411
       H    11.80428   14.24896  -10.69162
       O    12.27694   15.06603  -10.85971
      H1    11.83655   15.45146  -11.60029
       H    13.68209   18.72549  -15.01220
       O    13.84698   18.00768  -14.44594
      H1    13.65207   17.21204  -14.99565

