24
frame 10 | Written by MDAnalysis XYZWriter (release 2.4.3)
       H     2.07509    3.97919    4.95968
       O     1.67340    4.54495    5.63144
      H1     2.36882    5.24639    5.80206
       H    -2.37366    2.59756    4.75124
       O    -3.21291    3.03036    5.01376
      H1    -3.75978    2.68124    4.30777
       H     3.42821   -0.75819    4.24055
       O     2.63117   -0.68479    3.71332
      H1     2.65059   -1.46406    3.09024
       H     1.16503   -0.70398    6.56082
       O     0.31941   -0.74300    6.12900
      H1     0.19281    0.09660    5.72291
       H    -0.35147    2.23305    7.84546
       O     0.47418    2.25271    7.32011
      H1     0.62185    3.17273    7.10028
       H    -0.73428   -0.20226    1.74866
       O    -1.42639    0.29749    2.29336
      H1    -1.15854    0.44717    3.20923
       H    -0.31616    1.65758    5.81787
       O    -0.25913    1.53449    4.87688
      H1     0.68619    1.81136    4.69300
       H     2.27789    2.87216    3.13940
       O     2.28736    2.29901    3.90110
      H1     2.76277    1.46166    3.64298

