24
frame 0 | Written by MDAnalysis XYZWriter (release 2.4.3)
       H   -12.14210    1.15726  -15.04662
       O   -13.03578    1.46370  -15.07025
      H1   -13.16666    2.42741  -14.86732
       H   -17.67521    6.90389  -16.64582
       O   -17.41527    5.95165  -16.69859
      H1   -17.32692    5.82234  -17.63940
       H   -15.97544    4.04726  -14.25597
       O   -15.61482    4.93642  -14.32989
      H1   -16.23795    5.31506  -14.95486
       H   -18.42411    3.28855  -13.13553
       O   -18.76229    3.87868  -13.86723
      H1   -18.63008    4.76878  -13.43175
       H   -15.54071    5.81405  -12.68871
       O   -15.99698    6.43122  -12.14209
      H1   -16.84197    6.57342  -12.54395
       H   -13.79974    4.59202  -14.31132
       O   -13.01250    4.08610  -14.49516
      H1   -12.49697    4.06294  -13.65988
       H   -15.44969    6.97497  -16.47624
       O   -14.48174    7.15839  -16.46696
      H1   -14.36761    7.76925  -15.73993
       H   -15.83845    8.31021  -13.16341
       O   -16.19279    8.86429  -13.87315
      H1   -16.24488    9.82067  -13.66379

