24
frame 9 | Written by MDAnalysis XYZWriter (release 2.4.3)
       H    -9.12163  -16.73209   -4.38292
       O    -8.85311  -16.49600   -5.24413
      H1    -8.31614  -17.25737   -5.47902
       H   -10.20487  -12.11601   -9.85729
       O    -9.52666  -11.89957   -9.19009
      H1    -9.24587  -12.75978   -8.91441
       H    -9.50167  -15.23976   -8.19892
       O    -9.05351  -14.42128   -8.02338
      H1    -8.84746  -14.19700   -7.06199
       H   -10.27091  -10.62073   -6.49900
       O    -9.92375  -11.06057   -5.74627
      H1   -10.73864  -11.17164   -5.17618
       H    -8.57834  -14.54183   -5.05625
       O    -8.38884  -13.76469   -5.50608
      H1    -9.22093  -13.23792   -5.52650
       H    -8.62383  -10.32432   -4.82307
       O    -8.06083   -9.89785   -4.14722
      H1    -8.04555  -10.45311   -3.37958
       H    -6.58739  -13.82402   -6.16133
       O    -5.75097  -13.58987   -6.57224
      H1    -6.00477  -12.89967   -7.20978
       H   -11.50961  -12.72872   -3.92632
       O   -10.69336  -13.26049   -3.83134
      H1   -10.99620  -14.09727   -3.44374

