24
frame 10 | Written by MDAnalysis XYZWriter (release 2.4.3)
       H     9.58342  -13.80155   -1.50107
       O     9.40409  -13.00438   -1.98965
      H1    10.12802  -12.85864   -2.59781
       H     6.28744  -10.78097    1.71243
       O     6.79270  -11.51000    1.36761
      H1     7.37925  -11.04258    0.72465
       H     8.56778   -9.75805   -0.77830
       O     8.67329  -10.59406   -0.30753
      H1     8.91638  -11.24035   -0.95830
       H     7.58157  -13.21844   -1.38306
       O     6.68507  -13.30640   -1.18999
      H1     6.50593  -12.74239   -0.39031
       H     7.82639  -12.36964    2.50264
       O     8.49189  -12.67439    3.17501
      H1     9.30730  -12.65086    2.65765
       H     2.34115  -12.01879   -1.39362
       O     2.65058  -12.42084   -0.56532
      H1     3.02683  -11.69005   -0.08818
       H     3.07343  -15.40474   -1.71496
       O     4.04999  -15.35936   -1.77706
      H1     4.22067  -14.49527   -1.42879
       H     5.99929  -11.27659   -1.91282
       O     5.94986  -10.40385   -2.22625
      H1     5.11469  -10.36407   -2.71070

