24
frame 9 | Written by MDAnalysis XYZWriter (release 2.4.3)
       H    11.33419   -9.13212    6.03112
       O    11.86394   -9.92693    6.14429
      H1    12.47462   -9.65152    6.82532
       H    17.50593  -11.70774   11.24422
       O    16.65313  -11.82613   10.75852
      H1    16.96811  -12.20971    9.89528
       H    15.57719  -13.63287    8.88743
       O    14.96826  -13.03515    8.46648
      H1    14.18603  -13.06283    9.01060
       H    13.85911   -9.85468    8.80530
       O    13.59033  -10.43918    8.09714
      H1    14.14268  -11.24329    8.21105
       H    12.28146  -11.31157   10.19170
       O    12.35442  -10.79918   10.97823
      H1    13.29022  -10.77753   11.09558
       H    14.18223  -13.69382    7.01541
       O    14.08625  -14.38153    6.36877
      H1    14.82510  -14.96800    6.58001
       H    12.41333  -14.08203    9.42853
       O    12.86339  -13.51584   10.04107
      H1    13.01763  -14.11938   10.72927
       H    16.41575  -10.36892    7.34023
       O    16.70154   -9.49531    7.11476
      H1    17.53517   -9.27754    7.50688

