24
frame 9 | Written by MDAnalysis XYZWriter (release 2.4.3)
       H   -11.49674   -1.63113   -9.93302
       O   -11.00447   -0.75257  -10.03872
      H1   -10.72478   -0.65600  -10.97220
       H    -8.82144   -0.10670   -7.96440
       O    -8.91528   -0.90223   -8.52939
      H1    -9.69332   -0.87572   -9.04976
       H    -6.73234    0.67384  -11.28967
       O    -6.94406   -0.24902  -11.29691
      H1    -7.64971   -0.20814  -10.65196
       H    -8.71307    2.86796   -9.62268
       O    -8.51317    3.13113   -8.72204
      H1    -8.33124    2.39582   -8.10264
       H   -10.31242    0.00522   -4.20296
       O    -9.52042   -0.09075   -4.81453
      H1    -9.46994   -1.06417   -4.97984
       H   -11.66320   -3.29704   -8.44707
       O   -12.23650   -3.17345   -9.24161
      H1   -13.09232   -3.42103   -8.90765
       H    -8.62905   -3.31446   -6.32347
       O    -9.23345   -2.57215   -6.26964
      H1    -9.04039   -2.04221   -7.01048
       H    -8.37239    0.89916   -6.01164
       O    -7.95723    1.25392   -6.79271
      H1    -7.02548    1.29832   -6.60533

