24
frame 9 | Written by MDAnalysis XYZWriter (release 2.4.3)
       H     4.98320   13.00714    0.58093
       O     4.77587   12.08322    0.42106
      H1     5.33041   11.87156   -0.36541
       H     0.67242   12.36989    0.28936
       O     1.51408   11.96311    0.15235
      H1     1.73535   11.96546   -0.81021
       H     3.53513    8.28565    3.10384
       O     2.89372    8.36742    2.38896
      H1     2.75564    9.35208    2.21232
       H    -0.69199    9.67846    0.36820
       O    -0.28054   10.02509   -0.45562
      H1     0.41625   10.65483   -0.18384
       H     2.51693   11.62230    3.29546
       O     3.15708   11.28529    2.67117
      H1     2.72765   11.63957    1.84505
       H     7.39247   11.28790    1.57761
       O     6.59229   10.92153    1.96484
      H1     5.84671   11.11882    1.30234
       H     3.65827   11.28401   -1.10962
       O     3.11292   11.52429   -1.89750
      H1     3.58557   12.26206   -2.27592
       H     6.20897   12.65480    2.86441
       O     5.45603   13.05620    3.23679
      H1     4.61230   12.66078    2.83289

