24
frame 10 | Written by MDAnalysis XYZWriter (release 2.4.3)
       H   -14.76146  -12.55040   -0.30355
       O   -14.78673  -13.04252   -1.14482
      H1   -15.69692  -12.84823   -1.49288
       H   -13.24301  -12.79287    1.78331
       O   -14.04195  -12.96806    1.29579
      H1   -13.98184  -13.88009    1.14627
       H   -11.43302  -17.14911    2.15643
       O   -10.50952  -17.10484    2.31768
      H1   -10.06933  -16.61343    1.56300
       H   -16.93779  -15.86055    0.28480
       O   -17.20026  -16.65359   -0.17760
      H1   -16.61950  -17.35238    0.15757
       H   -14.63426  -16.75994   -2.01065
       O   -15.00491  -17.17682   -2.80953
      H1   -15.18909  -18.10826   -2.48355
       H   -12.01575  -15.76707   -1.63246
       O   -11.37855  -15.91112   -2.32483
      H1   -11.90156  -16.56378   -2.83730
       H   -13.75467  -16.94833    2.36974
       O   -13.36640  -16.09167    2.09130
      H1   -13.47871  -15.76589    2.99912
       H   -14.02476  -14.53277   -0.59222
       O   -13.55320  -15.31453   -0.44470
      H1   -13.42879  -15.46527    0.48307

