27
frame 0 | Written by MDAnalysis XYZWriter (release 2.4.3)
       H    17.26799   -4.12644   -1.71925
       O    16.74736   -3.69066   -2.43533
      H1    16.32286   -2.96595   -1.93353
       H    14.62940   -1.35833   -2.69186
       O    15.02171   -1.47009   -1.77301
      H1    15.61838   -0.72197   -1.61948
       H    15.99613    1.30719   -0.55395
       O    15.61698    1.48917   -1.39956
      H1    16.31822    1.88451   -1.97348
       H    14.42460   -3.60873    1.00691
       O    14.02068   -2.75701    0.97709
      H1    14.15820   -2.37288    0.16599
       H    13.60630    1.27691   -1.40630
       O    12.61669    1.37148   -1.31474
      H1    12.28822    0.52822   -1.16762
       H    16.09604   -2.31944   -5.39771
       O    16.94893   -2.37144   -4.95146
      H1    16.83090   -2.66592   -4.05519
       H    17.17169   -2.60635    1.00220
       O    17.86027   -2.24633    1.51117
      H1    18.09305   -2.95935    2.09178
       H    19.56683   -0.65770   -2.79622
       O    18.88642   -0.83454   -2.13642
      H1    18.89516   -0.03756   -1.68103
       H    13.34980    0.19214   -4.07555
       O    13.98076   -0.49446   -4.43939
      H1    13.38009   -1.19089   -4.65782

