27
frame 1 | Written by MDAnalysis XYZWriter (release 2.4.3)
       H    -2.38794   18.08684   -3.45813
       O    -2.57694   17.81131   -2.54773
      H1    -2.23548   18.55270   -2.02853
       H    -0.13931   15.64382   -2.67453
       O    -0.84662   15.75213   -2.00094
      H1    -1.48056   16.42963   -2.29427
       H    -2.26249   18.95298   -5.40788
       O    -1.54896   18.47571   -4.87835
      H1    -0.86830   19.13336   -4.65847
       H     0.33127   15.58353   -7.81371
       O     0.80468   15.71590   -8.66982
      H1     1.09671   16.64307   -8.74730
       H    -4.41194   15.81213   -5.41387
       O    -5.07633   16.50663   -5.54185
      H1    -5.17667   16.85995   -4.59494
       H     1.72492   14.11588   -3.36931
       O     0.94411   14.09466   -3.94446
      H1     1.09846   14.72450   -4.59919
       H    -1.10418   16.60471   -5.90140
       O    -0.61087   15.81702   -6.27873
      H1    -1.25929   15.11439   -6.41085
       H    -4.48971   19.63816   -5.54290
       O    -3.92133   19.09600   -6.03341
      H1    -4.22397   18.23931   -5.74234
       H    -3.49383   13.60812   -5.26689
       O    -2.79352   14.33679   -5.36792
      H1    -2.21011   14.34946   -4.57990

