27
frame 1 | Written by MDAnalysis XYZWriter (release 2.4.3)
       H   -13.05900    3.34436   13.15331
       O   -13.23164    2.47163   13.57922
      H1   -12.49759    2.10996   13.99620
       H   -13.10635    3.56947   17.22548
       O   -12.22466    3.18352   17.25448
      H1   -11.87899    3.35379   18.16457
       H   -14.32889   -0.42503   15.02125
       O   -13.36338   -0.50372   15.03332
      H1   -13.26977   -1.06872   14.24577
       H   -15.45859    2.72492   15.68415
       O   -14.91054    3.48237   15.50130
      H1   -14.26969    3.14700   14.77429
       H    -8.04155    2.94237   15.53438
       O    -7.21697    3.49276   15.62525
      H1    -6.98809    3.93475   14.85799
       H   -12.21358   -1.31664   16.21582
       O   -11.65669   -1.83510   16.76252
      H1   -11.06185   -2.25803   16.14111
       H    -9.87088   -1.03654   14.25074
       O    -9.39646   -0.49217   13.69777
      H1    -9.23365    0.35764   14.09022
       H    -9.92733    1.68176   16.08000
       O    -9.09041    1.77480   16.55670
      H1    -8.72727    0.86374   16.55958
       H   -11.63707    2.02446   15.84361
       O   -11.38247    1.44016   15.15113
      H1   -11.94700    0.64281   15.04995

