27
frame 1 | Written by MDAnalysis XYZWriter (release 2.4.3)
       H    -1.35804    9.81857    8.75902
       O    -2.32581    9.94014    8.93918
      H1    -2.71785    9.03075    8.83605
       H     1.47922    4.76637    6.66877
       O     1.05608    4.58042    7.50915
      H1     1.11384    5.39870    7.97190
       H     0.31142    8.87221    6.63793
       O     0.25756    9.36715    7.49086
      H1     0.88492   10.07008    7.49809
       H     0.35893    6.86960   10.20091
       O    -0.31440    6.78980   10.86347
      H1    -0.02292    7.49150   11.48782
       H     3.13758   11.37870    7.73823
       O     2.25325   11.47711    8.16036
      H1     2.25840   11.27141    9.11833
       H    -1.51233    7.09682    9.61340
       O    -1.96616    7.07990    8.74627
      H1    -1.37710    6.67287    8.12050
       H     2.11870    6.90583    8.43994
       O     1.15491    7.09905    8.47223
      H1     1.17607    8.05387    8.30157
       H     1.16482    8.21341    4.75568
       O     0.35987    7.83531    5.12478
      H1     0.45416    6.89855    5.23126
       H     3.73701    5.47825    8.20798
       O     3.70586    6.44250    8.24478
      H1     4.20983    6.56991    9.08528

