27
frame 1 | Written by MDAnalysis XYZWriter (release 2.4.3)
       H     1.15372   -1.62316  -15.99036
       O     1.24631   -1.74829  -16.96508
      H1     0.64831   -1.12452  -17.34002
       H     4.99246   -1.58294  -16.25896
       O     5.48309   -2.40810  -16.26875
      H1     6.33241   -2.08401  -16.62251
       H     3.63452    0.58401  -14.13321
       O     2.82458    0.90062  -14.57314
      H1     2.56530    1.68263  -14.05762
       H     1.46533   -2.30365  -13.61969
       O     0.86976   -1.79264  -14.20238
      H1    -0.01781   -2.12092  -14.05831
       H    -1.41393    0.08762  -16.18378
       O    -1.14194    1.01512  -15.95509
      H1    -0.65998    0.95214  -15.13787
       H    -1.48205   -2.05552  -17.88637
       O    -1.96544   -1.36575  -17.44733
      H1    -2.64390   -1.86215  -16.92280
       H     2.73080   -0.92292  -17.14032
       O     3.49510   -0.38927  -16.97241
      H1     3.24448    0.15210  -16.20033
       H     0.27273   -3.12381  -17.01407
       O    -0.14593   -3.99721  -17.10038
      H1     0.53194   -4.56638  -17.52023
       H     2.56643   -3.17018  -17.34008
       O     3.14738   -3.97010  -17.22500
      H1     4.03382   -3.53627  -17.41908

