27
frame 1 | Written by MDAnalysis XYZWriter (release 2.4.3)
       H    15.20175   -6.18561    1.93202
       O    14.29586   -6.07979    1.94796
      H1    13.90345   -6.38219    1.14820
       H    16.64510   -9.72724    0.46601
       O    16.54176   -8.74795    0.59837
      H1    16.01105   -8.65152    1.42942
       H    14.05900   -5.76204    4.57283
       O    13.50121   -5.61730    5.32431
      H1    13.32980   -6.40313    5.90206
       H    14.29721   -9.82011    3.43340
       O    14.90438   -9.30174    2.94937
      H1    15.01455   -8.44983    3.40755
       H    14.78350   -3.92783    0.85752
       O    14.72524   -2.92158    0.90977
      H1    15.13346   -2.68761    0.08463
       H    12.62686   -4.00007    2.21049
       O    12.00427   -3.32585    2.51333
      H1    11.40261   -3.67601    3.18476
       H    12.46644   -5.40643   -0.59499
       O    12.71430   -6.30555   -0.40229
      H1    12.86598   -6.79084   -1.27419
       H    12.22054   -6.83142    2.77788
       O    11.54832   -7.26290    2.18646
      H1    12.11041   -7.78071    1.57215
       H    10.40976   -6.41184    0.60611
       O     9.40788   -6.45193    0.44525
      H1     9.04912   -6.13450    1.32822

