27
frame 1 | Written by MDAnalysis XYZWriter (release 2.4.3)
       H    14.26887   -7.21272   12.12042
       O    13.78956   -7.32143   11.26952
      H1    14.25070   -6.87909   10.55726
       H    17.91582  -11.54584    8.32591
       O    17.27243  -11.27288    9.04087
      H1    17.46753  -12.02130    9.65959
       H    13.69338   -9.09008    9.86200
       O    13.79457   -9.71537    9.14848
      H1    13.44174  -10.50898    9.57549
       H    15.43935   -7.75468   14.17442
       O    15.44420   -7.29074   13.32886
      H1    15.50319   -6.38324   13.59641
       H    14.67106  -11.25368   12.24316
       O    14.30177  -12.12053   12.17037
      H1    14.58528  -12.37095   11.30392
       H    17.90676   -8.97198   14.25366
       O    17.76470   -9.86261   13.81274
      H1    17.01230   -9.74610   13.27349
       H    18.18295   -7.78001   10.63863
       O    17.90855   -6.93235   11.01710
      H1    17.29479   -7.22619   11.68877
       H    15.92965  -10.03723   10.62834
       O    15.98119   -9.75888   11.50980
      H1    15.61633   -8.86392   11.52625
       H    18.99269   -8.65568    9.06774
       O    19.04518   -9.03584    9.92305
      H1    18.55018   -9.81913    9.84815

