27
frame 1 | Written by MDAnalysis XYZWriter (release 2.4.3)
       H    -1.04333    5.42671    0.43744
       O    -1.45442    4.55855    0.20139
      H1    -1.24241    4.15627    1.04858
       H     1.91645    3.43247    1.29848
       O     2.41643    3.70420    0.48795
      H1     2.78444    2.88967    0.21098
       H    -3.40407    0.86381    4.11705
       O    -3.14235    1.74657    3.82714
      H1    -3.54964    1.87325    2.99072
       H    -4.58688    2.94154    0.51363
       O    -4.60741    2.30220    1.23470
      H1    -4.88831    1.57136    0.72452
       H    -1.32057    0.16120   -0.25372
       O    -0.52618    0.46465    0.17417
      H1     0.08059    0.81030   -0.52572
       H    -2.36908   -1.35432    2.00911
       O    -1.39462   -1.28617    1.91751
      H1    -1.15398   -0.56976    1.38386
       H    -1.09746    2.00444    1.44980
       O    -1.24648    2.59522    2.17048
      H1    -1.78391    2.09766    2.78138
       H     0.61744    2.37324    2.66832
       O     1.44537    2.79217    2.90053
      H1     2.06326    2.10649    3.17864
       H     1.86761   -1.25177    2.57159
       O     1.86316   -0.93588    1.63772
      H1     0.98055   -0.61591    1.46589

