27
frame 1 | Written by MDAnalysis XYZWriter (release 2.4.3)
       H   -10.56908    5.93250   13.73452
       O   -11.05736    6.07382   14.53677
      H1   -11.19534    7.02730   14.64132
       H   -12.07773    4.72296    7.59614
       O   -12.11588    5.44407    8.26559
      H1   -12.79025    5.16925    8.87385
       H    -7.91547    2.51941   12.99146
       O    -8.83366    2.76881   12.98184
      H1    -9.20362    2.27726   12.21747
       H    -9.25695    7.65261   10.53024
       O    -8.49361    7.19636   10.18661
      H1    -7.79666    7.78442   10.20491
       H    -8.71795    5.74637   12.16308
       O    -9.54658    5.31197   12.43676
      H1    -9.46266    4.36792   12.64206
       H    -8.83702    3.35764    8.59621
       O    -8.18620    2.81693    8.16534
      H1    -7.54357    2.61417    8.81179
       H    -7.61956    5.66094    7.12911
       O    -7.88125    6.48918    7.48526
      H1    -8.02913    6.44751    8.43615
       H   -12.14398    3.76224    9.94213
       O   -12.91128    3.55560   10.53634
      H1   -13.46364    2.95627    9.98796
       H    -9.72138    4.73936   10.81440
       O    -9.74960    4.64534    9.84935
      H1    -9.67652    5.58724    9.60137

