27
frame 1 | Written by MDAnalysis XYZWriter (release 2.4.3)
       H    -1.27084  -18.69174   -7.41947
       O    -0.87623  -19.16265   -8.20856
      H1    -1.57005  -19.82533   -8.31725
       H    -4.12108  -17.31127   -4.18453
       O    -3.30499  -16.84121   -4.14338
      H1    -3.01561  -16.66495   -5.06612
       H    -7.09581  -18.23580  -10.75747
       O    -6.65460  -17.58502  -11.37927
      H1    -7.25325  -17.57066  -12.13533
       H    -8.46994  -18.48667   -5.68827
       O    -8.21737  -17.55885   -5.45394
      H1    -8.03729  -17.22027   -6.32795
       H    -5.67311  -18.93306   -3.67284
       O    -5.61678  -18.38940   -4.41878
      H1    -6.47822  -17.93973   -4.58663
       H    -3.05134  -17.12757   -7.39390
       O    -2.35374  -17.25182   -6.68267
      H1    -1.56254  -16.70888   -6.94304
       H    -2.63662  -18.91521  -12.25174
       O    -2.58688  -18.57387  -11.38492
      H1    -2.07638  -17.77024  -11.31822
       H    -4.63004  -16.71889   -9.32639
       O    -4.75246  -17.22458   -8.47325
      H1    -5.38776  -16.68360   -7.96326
       H    -5.04703  -18.95340   -8.49483
       O    -5.24568  -19.92969   -8.28982
      H1    -4.66538  -20.09911   -7.49709

