27
frame 1 | Written by MDAnalysis XYZWriter (release 2.4.3)
       H   -18.43374  -15.75716    5.04800
       O   -19.20139  -15.13972    5.23325
      H1   -19.91971  -15.68380    4.96094
       H   -15.17054  -15.17831    0.15847
       O   -14.68370  -15.36782    1.00203
      H1   -15.26484  -15.82796    1.59672
       H   -16.55226  -17.16216    3.08828
       O   -16.06532  -17.26451    2.21591
      H1   -16.15898  -18.19715    2.07554
       H   -18.36906  -19.95249    4.33239
       O   -19.00845  -19.22543    4.52651
      H1   -19.30870  -19.01490    3.62309
       H   -17.75130  -17.80054    5.02624
       O   -17.31386  -16.98385    4.86826
      H1   -16.90229  -16.65878    5.71746
       H   -18.91608  -15.33328    0.14621
       O   -19.78037  -15.71581    0.42909
      H1   -19.99051  -16.33980   -0.25308
       H   -15.16532  -14.08489    4.71052
       O   -14.61609  -14.79684    5.12683
      H1   -15.16506  -15.11777    5.83858
       H   -14.29721  -17.38073    3.31379
       O   -13.55046  -17.37356    3.93776
      H1   -13.60692  -16.45564    4.29371
       H   -12.68829  -18.18510    0.60384
       O   -13.34371  -17.79953   -0.02072
      H1   -13.61136  -16.98221    0.42556

