27
frame 1 | Written by MDAnalysis XYZWriter (release 2.4.3)
       H     3.67977   14.40070   -8.50032
       O     3.16718   14.36052   -9.31271
      H1     2.33324   14.80039   -9.15176
       H     6.43621   13.08287   -5.16184
       O     7.19803   12.76061   -4.58663
      H1     7.08296   11.82559   -4.36046
       H     5.85884   16.72186   -8.91320
       O     6.52506   16.88374   -9.61166
      H1     7.31867   16.36249   -9.46659
       H     5.05558   17.29989   -6.85690
       O     4.80319   16.52038   -7.46796
      H1     4.45726   15.86197   -6.86221
       H     8.24946   12.85057   -9.64861
       O     7.41607   12.38191   -9.93261
      H1     6.91107   13.00070  -10.48079
       H     6.19355   10.55643   -9.00055
       O     5.28562   10.34267   -8.64835
      H1     4.76570   10.35779   -9.48947
       H     6.01505   14.05798  -12.10583
       O     5.57803   13.81149  -11.28009
      H1     4.82701   14.40719  -11.15312
       H     3.97209   14.87858   -4.48249
       O     4.03572   14.73490   -5.45162
      H1     3.98054   13.82055   -5.73188
       H     5.97350   13.24925   -7.73387
       O     5.35678   12.84209   -7.14765
      H1     5.27513   11.95480   -7.50983

