27
frame 1 | Written by MDAnalysis XYZWriter (release 2.4.3)
       H    17.17927    5.33062   11.48151
       O    16.43034    5.94057   11.73759
      H1    15.78859    5.21944   12.04148
       H    16.17366    2.61420   12.92134
       O    15.95438    3.24925   13.56698
      H1    15.55065    2.68066   14.25181
       H    12.86300    6.71561   14.53034
       O    12.19401    6.67747   13.79561
      H1    11.34815    6.75389   14.25636
       H    11.78066    6.71711   11.80764
       O    11.53519    7.09641   10.94322
      H1    10.66556    6.75794   10.73232
       H    12.54921    6.21075    9.61792
       O    12.90756    5.96713    8.73939
      H1    12.38644    5.31063    8.23709
       H    13.03701    5.21591   13.16901
       O    13.50539    4.64934   12.57844
      H1    13.91427    4.01591   13.18058
       H    11.96336    2.06690   11.66825
       O    11.65031    2.65758   12.35876
      H1    12.16382    3.47693   12.28875
       H    14.45960    5.67402    9.30845
       O    15.41798    5.92059    9.33493
      H1    15.71830    5.98030   10.27276
       H    14.84223    7.10018   15.17744
       O    14.06990    6.81944   15.62613
      H1    13.72386    7.42629   16.25155

