27
frame 2 | Written by MDAnalysis XYZWriter (release 2.4.3)
       H    16.63609   18.58342   11.87077
       O    17.20001   18.04747   12.45374
      H1    17.71767   18.71590   12.97223
       H    18.33270   18.68542   19.33692
       O    18.48172   17.71683   19.13644
      H1    17.64789   17.34097   19.40987
       H    13.47236   17.38160   16.34672
       O    13.46423   18.36597   16.45323
      H1    14.07203   18.76375   15.87077
       H    16.36422   17.80003   14.65840
       O    16.68153   17.91365   15.53191
      H1    17.50615   17.39217   15.56652
       H    18.88847   14.30195   15.11066
       O    18.78172   14.51581   16.03617
      H1    17.75142   14.38358   16.06849
       H    15.31859   15.83286   12.16291
       O    14.38501   15.68496   12.41940
      H1    14.34164   14.75057   12.42233
       H    14.84664   15.81935   14.25214
       O    14.58554   15.61703   15.18756
      H1    13.74840   15.19148   14.96506
       H    15.61770   14.55739   16.02861
       O    16.18145   13.78840   16.28275
      H1    16.20951   13.64410   17.23923
       H    17.20065   16.40275   11.67802
       O    17.14842   15.47566   11.64448
      H1    17.61447   15.15220   12.51390

