27
frame 1 | Written by MDAnalysis XYZWriter (release 2.4.3)
       H    -5.15381   -8.61798    5.08785
       O    -5.66743   -7.93810    4.61438
      H1    -6.59773   -8.24086    4.82007
       H    -7.18284   -8.13918    2.13033
       O    -8.10411   -7.83407    2.01475
      H1    -8.20166   -7.94300    1.01972
       H    -6.80248   -5.30394    5.59838
       O    -7.77618   -5.25442    5.71983
      H1    -8.10351   -4.98426    4.87972
       H    -4.80048   -9.55769    6.91253
       O    -4.33907   -9.72246    6.06768
      H1    -4.63832  -10.55893    5.64576
       H    -4.96524   -6.32950    5.00598
       O    -4.98829   -5.43324    5.27255
      H1    -4.78073   -4.95386    4.45654
       H    -7.64827   -9.99007    4.87129
       O    -7.94014   -9.09591    5.23784
      H1    -8.65931   -8.74972    4.71419
       H    -4.62617   -8.06724    8.38292
       O    -5.35089   -8.69563    8.26131
      H1    -5.03109   -9.43508    8.82103
       H    -3.71537   -8.57950    2.88554
       O    -2.88505   -8.12846    2.83263
      H1    -2.70259   -8.05376    1.84778
       H    -5.52776   -9.94433    2.05369
       O    -5.35468   -9.03201    2.10298
      H1    -5.43480   -8.71976    3.01293

