27
frame 2 | Written by MDAnalysis XYZWriter (release 2.4.3)
       H    16.21427   12.76597    3.83408
       O    15.96905   12.34434    3.00454
      H1    16.85279   12.11419    2.55328
       H    18.11633   10.70563    1.31252
       O    18.29350   11.62540    1.40530
      H1    18.99162   11.71750    2.00877
       H    17.69468   15.54005    2.29488
       O    18.57708   15.35214    1.82344
      H1    18.47202   14.46162    1.48254
       H    15.33253   11.59976   -0.88450
       O    14.83655   11.00315   -0.30921
      H1    14.85745   11.30172    0.60732
       H    17.49977    8.89816    2.31180
       O    17.88768    8.52628    3.08018
      H1    18.75229    8.35506    2.74473
       H    16.25392    9.48292    0.14720
       O    16.95502    9.04935    0.53788
      H1    16.89881    8.08173    0.35138
       H    17.60533   10.53030    5.29692
       O    18.10503   11.31440    5.05470
      H1    18.91920   11.20005    5.54447
       H    19.37144   10.72443   -1.86379
       O    19.72512   11.30866   -1.21633
      H1    19.14923   11.51231   -0.44318
       H    18.83665    6.93510    0.65053
       O    19.80705    7.03694    0.80357
      H1    20.22053    6.15516    1.02387

