27
frame 0 | Written by MDAnalysis XYZWriter (release 2.4.3)
       H    10.69073   11.35837  -13.49230
       O    10.88361   12.09306  -14.03018
      H1    11.80878   12.37546  -13.65297
       H     9.19171   17.38706  -12.87713
       O     8.98508   16.47154  -12.96047
      H1     9.79878   16.00392  -12.88133
       H     5.39097   15.35508  -16.57471
       O     6.30968   15.18178  -16.40392
      H1     6.40300   14.83584  -15.51232
       H     8.99182   14.86623  -15.20090
       O     9.69270   15.28847  -15.73481
      H1     9.18426   15.80617  -16.40759
       H    10.06669   13.20146  -12.22684
       O     9.27117   13.59080  -11.79617
      H1     8.76172   12.79981  -11.55450
       H     8.80263   10.18656  -14.62569
       O     8.92042    9.91093  -13.65974
      H1     8.36566   10.50804  -13.09266
       H     6.28294   14.51481  -11.43820
       O     6.34926   13.57066  -11.22925
      H1     5.44410   13.27110  -11.33470
       H     6.20634   10.83646  -14.62643
       O     6.04345   11.53448  -14.02962
      H1     6.63169   12.30823  -14.24744
       H     7.90861   13.83792  -13.35017
       O     7.80197   13.47742  -14.26492
      H1     8.59458   12.95529  -14.49710

