27
frame 3 | Written by MDAnalysis XYZWriter (release 2.4.3)
       H    17.42836   17.18078    2.03761
       O    17.96911   17.08178    1.23725
      H1    17.53282   17.60642    0.50777
       H    14.79281   16.98754    7.29474
       O    15.46627   17.06364    7.96487
      H1    15.92476   16.22631    8.08333
       H    12.93778   17.49860    5.81426
       O    13.87491   17.47936    5.47974
      H1    13.99994   18.48240    5.54271
       H    17.55113   19.01369    5.79694
       O    17.22516   19.03645    4.86236
      H1    16.29777   19.20729    4.94609
       H    18.02267   19.58777    8.27073
       O    18.36317   19.15702    7.44639
      H1    19.06906   19.80014    7.12216
       H    17.08572   17.06628    5.01482
       O    17.04866   16.09309    4.68558
      H1    17.85684   15.69329    5.01109
       H    18.46345   16.31607    8.98816
       O    19.19751   16.82297    8.68742
      H1    18.87682   17.68498    8.45289
       H    20.23761   15.30802    6.00786
       O    19.37783   15.09153    6.47789
      H1    19.17047   15.73998    7.12011
       H    15.88118   15.12431    5.58216
       O    15.43075   14.56907    6.25957
      H1    15.80955   13.70783    6.16155

