27
frame 3 | Written by MDAnalysis XYZWriter (release 2.4.3)
       H    19.36014  -11.22893   13.28102
       O    19.86584  -12.04422   13.15501
      H1    19.99217  -12.45284   13.97372
       H    17.61555  -11.98654   15.30333
       O    17.64367  -12.59239   16.08891
      H1    16.71842  -12.85097   16.28115
       H    14.92603   -8.36744   15.55780
       O    14.22716   -8.20182   14.84953
      H1    13.69944   -8.99710   14.75839
       H    15.30813   -7.38256   13.45865
       O    15.85239   -6.87101   12.78714
      H1    15.68514   -5.93604   13.01287
       H    17.46078   -9.63124   14.21290
       O    17.42718  -10.57870   13.93094
      H1    16.69282  -10.57304   13.35470
       H    17.68267   -6.32028   15.55451
       O    17.21181   -5.45427   15.69389
      H1    17.93088   -4.77627   15.60675
       H    18.67334   -7.51899   11.59369
       O    18.55828   -6.94808   12.35995
      H1    17.59078   -6.86825   12.50522
       H    18.90106   -7.85557   14.49102
       O    18.58484   -8.07332   15.38031
      H1    19.36825   -8.48314   15.81871
       H    16.99180  -10.38575   11.10710
       O    16.12832  -10.85606   11.23330
      H1    15.45783  -10.23000   11.00170

