27
frame 2 | Written by MDAnalysis XYZWriter (release 2.4.3)
       H   -12.26502   17.81822   17.64207
       O   -13.02922   17.23449   17.45017
      H1   -13.73231   17.81024   17.32659
       H   -15.60527   18.28809   17.50359
       O   -15.34697   18.36267   16.56165
      H1   -15.24176   19.36488   16.49354
       H   -11.74362   16.10302   11.22741
       O   -11.63674   17.01085   10.96324
      H1   -11.90146   17.59487   11.68259
       H   -16.23852   18.90905   14.64538
       O   -16.34900   19.78152   14.22317
      H1   -15.61024   19.73365   13.60933
       H   -14.10240   16.50706   10.91048
       O   -15.04531   16.59123   10.67988
      H1   -15.25922   17.56311   10.60962
       H   -18.25201   15.57960   13.78047
       O   -19.10402   15.86514   13.37278
      H1   -18.76241   16.27819   12.58462
       H   -15.98993   18.76348    8.87980
       O   -15.31182   18.95554    9.55463
      H1   -14.62227   18.31091    9.29152
       H   -12.00254   18.08121   14.11390
       O   -11.58585   18.60186   13.40102
      H1   -11.84779   19.50740   13.60202
       H   -18.22076   18.54283   11.56580
       O   -18.01797   19.47293   11.72386
      H1   -17.21233   19.43224   12.28590

