27
frame 2 | Written by MDAnalysis XYZWriter (release 2.4.3)
       H     9.61516   14.94381  -12.82693
       O     9.07479   15.47149  -13.38487
      H1     8.71559   15.03210  -14.16499
       H    13.25572   12.80761  -11.20611
       O    13.75487   13.11679  -11.97785
      H1    13.43393   14.03857  -12.03807
       H    12.58830   16.17075   -9.30041
       O    13.01377   16.66642   -9.99235
      H1    12.46721   16.36954  -10.78414
       H     9.52723   18.34305  -15.13240
       O     9.79460   17.45386  -15.22955
      H1     9.56951   16.99124  -14.41659
       H    10.44577   15.80308   -7.80653
       O     9.66459   15.66255   -8.39766
      H1     9.88918   16.24640   -9.15030
       H    12.44782   19.95873  -10.81431
       O    12.60208   19.31904  -11.53041
      H1    12.40266   19.67920  -12.39699
       H    14.11954   15.03656  -14.50203
       O    13.37263   15.56956  -14.15517
      H1    12.79718   15.59827  -14.96836
       H    11.16402   18.40137  -11.04982
       O    10.35526   17.97125  -10.79442
      H1     9.61069   18.44710  -11.15102
       H    10.80053   16.46763  -12.10763
       O    11.45353   15.77502  -12.13036
      H1    11.87938   15.68477  -12.97121

