27
frame 2 | Written by MDAnalysis XYZWriter (release 2.4.3)
       H   -15.42119   12.66123   17.76273
       O   -15.48923   11.73933   17.47884
      H1   -15.42997   11.23020   18.32410
       H   -18.83588    4.97185   14.88563
       O   -18.31329    5.37876   14.21155
      H1   -17.50243    4.81511   14.24778
       H   -17.95056    7.15472   14.22670
       O   -17.53925    8.03880   14.31490
      H1   -16.76939    8.05024   13.71696
       H   -14.14928    9.90055   15.70374
       O   -13.96434    8.98699   15.54727
      H1   -14.04483    8.64757   16.46920
       H   -17.62077    8.19915   16.92517
       O   -17.79101    8.40780   17.82764
      H1   -17.86781    9.36396   17.93847
       H   -17.66374   12.75075   13.79447
       O   -17.77906   13.06280   14.70428
      H1   -18.03447   12.31656   15.21503
       H   -14.29863    6.37955   16.92870
       O   -13.69849    6.79583   17.61604
      H1   -12.85920    6.76531   17.15849
       H   -17.30354   11.44445   17.19471
       O   -18.20101   11.30677   16.88590
      H1   -18.63433   11.84698   17.56066
       H   -15.99948    6.30047   15.21795
       O   -15.54806    5.62691   15.70726
      H1   -15.95050    4.79948   15.44019

