27
frame 2 | Written by MDAnalysis XYZWriter (release 2.4.3)
       H     4.17850   12.41199   18.61441
       O     4.26935   11.48286   18.38934
      H1     5.18188   11.17667   18.57053
       H     2.29442   14.41004   18.76828
       O     1.41284   14.50408   18.31146
      H1     1.41151   15.32181   17.77892
       H     0.09173   13.48246   17.94507
       O    -0.52614   12.75801   17.72215
      H1    -1.10760   12.56698   18.51180
       H    -0.72626   16.99541   17.20241
       O     0.06546   16.95946   17.81076
      H1     0.44515   17.85190   17.68557
       H    -0.75674   13.60771   16.13669
       O    -0.55951   14.15030   15.36471
      H1    -0.90810   14.97916   15.60848
       H     4.41367   15.11396   15.67258
       O     4.68566   15.77284   16.36538
      H1     5.20118   15.26307   17.02140
       H     6.59821   13.79544   17.35710
       O     6.44899   14.48948   17.99398
      H1     6.52995   14.07585   18.85143
       H     1.68516   10.21643   16.77487
       O     0.83307   10.35285   17.13702
      H1     0.83760   11.19985   17.57093
       H     2.45719   14.43890   14.49449
       O     3.18329   13.96555   14.92035
      H1     2.82687   13.36290   15.56827

