27
frame 2 | Written by MDAnalysis XYZWriter (release 2.4.3)
       H    17.79786    0.54215  -14.13514
       O    18.14920   -0.06347  -14.78289
      H1    18.30173    0.38361  -15.62613
       H    17.63725    3.03592  -11.62343
       O    16.88356    3.13537  -11.01645
      H1    16.36386    3.84664  -11.46644
       H    16.82919    5.12039  -14.22861
       O    17.17550    4.31508  -14.63551
      H1    16.35400    3.73903  -14.69064
       H    15.67485    2.02774  -11.46124
       O    14.92487    1.42809  -11.58151
      H1    14.18201    1.86310  -11.92498
       H    14.47198    3.35589  -13.72801
       O    14.92534    2.97302  -14.48711
      H1    14.34890    3.18227  -15.23338
       H    19.10412   -1.13915  -13.96788
       O    19.44114   -1.96229  -13.49180
      H1    19.90532   -1.65372  -12.70526
       H    17.31251   -0.10447  -11.26793
       O    17.73633   -0.12953  -10.37130
      H1    17.02306   -0.42369   -9.79950
       H    17.33066    2.46989  -17.51713
       O    16.72087    2.31576  -16.78210
      H1    15.87039    2.62732  -17.00127
       H    18.13625    2.54757  -13.78387
       O    18.11016    1.91767  -12.98949
      H1    19.00553    1.49281  -13.02384

