27
frame 2 | Written by MDAnalysis XYZWriter (release 2.4.3)
       H    -2.31799   13.15381    3.52280
       O    -2.20471   14.09849    3.31726
      H1    -3.09107   14.35451    3.05947
       H    -7.62493   13.52784    1.59223
       O    -6.86776   13.42702    1.01333
      H1    -7.17699   12.71039    0.45760
       H    -4.43481    9.08054    1.66064
       O    -4.49215    9.36101    2.54808
      H1    -4.82147   10.27148    2.57881
       H    -5.54126   14.91992    2.16945
       O    -4.62623   15.26625    2.21513
      H1    -4.79338   16.17364    2.61466
       H    -5.46717   12.04539    3.65030
       O    -4.99035   12.00178    2.80873
      H1    -5.59288   12.37417    2.14036
       H    -5.76979   11.38928   -1.09931
       O    -6.56418   10.88278   -0.98002
      H1    -6.29191    9.95330   -1.17866
       H    -9.59271   13.06418    3.19327
       O    -9.06651   13.74630    2.68255
      H1    -9.66214   14.20052    2.08106
       H    -2.87951   11.62289    1.93916
       O    -2.31985   11.18548    1.25378
      H1    -1.90869   11.97780    0.87909
       H    -6.11275   12.32108    5.99367
       O    -5.69085   11.66073    5.41679
      H1    -6.46947   11.01881    5.30170

