27
frame 3 | Written by MDAnalysis XYZWriter (release 2.4.3)
       H    -5.04408  -11.84405  -16.02373
       O    -4.69917  -12.72075  -15.63925
      H1    -4.26222  -13.27605  -16.34086
       H    -2.05410  -11.28038  -17.29481
       O    -1.48139  -12.04000  -17.58192
      H1    -1.66466  -12.15343  -18.54823
       H    -5.87907   -9.21869  -14.64840
       O    -5.92744   -9.86195  -15.36055
      H1    -6.84635  -10.02250  -15.53215
       H    -4.04773   -9.52389  -17.05340
       O    -3.23103   -9.45803  -16.56423
      H1    -3.41080   -9.37478  -15.58689
       H    -1.24313   -7.75038  -14.67051
       O    -1.02565   -7.50304  -13.74736
      H1    -0.41323   -8.16561  -13.38027
       H    -3.54178   -7.97504  -13.97190
       O    -3.25632   -8.87227  -14.01061
      H1    -2.31187   -8.74984  -14.02965
       H    -5.14489  -11.69535  -18.41921
       O    -4.74903  -10.83049  -18.54020
      H1    -5.52080  -10.34747  -18.91402
       H    -2.40475   -7.91241  -16.43984
       O    -1.98054   -7.03002  -16.33686
      H1    -1.39799   -6.93926  -17.08575
       H    -0.70391  -11.09471  -15.08039
       O    -0.04191  -10.40757  -15.17913
      H1     0.69475  -10.63546  -15.79379

