27
frame 3 | Written by MDAnalysis XYZWriter (release 2.4.3)
       H     5.08664    2.90461    0.57674
       O     5.53357    2.75424   -0.27365
      H1     5.23331    3.35156   -0.98775
       H     3.86756    3.58171   -4.02293
       O     3.28205    3.69565   -4.78073
      H1     2.36302    3.77995   -4.37382
       H     5.64484    1.04831   -2.82037
       O     4.89083    0.54599   -3.24869
      H1     4.36039    0.59283   -2.46041
       H     1.36201    4.42407   -1.73756
       O     2.04062    3.72454   -1.74146
      H1     1.90193    3.41380   -0.83678
       H     7.52432    2.20189   -3.28423
       O     7.33628    1.58181   -2.53750
      H1     8.02819    1.74726   -1.85784
       H     3.38904    6.81606   -3.98842
       O     2.79547    7.14533   -3.31057
      H1     2.04871    7.66418   -3.71161
       H     3.94478    4.37487   -2.13532
       O     4.92326    4.23484   -2.31130
      H1     5.22630    5.16009   -2.29795
       H     7.18322    6.00524   -3.08445
       O     6.34005    6.44865   -2.87971
      H1     6.49675    7.33554   -3.24202
       H     7.26981    3.40585   -0.38796
       O     8.13471    3.86226   -0.38967
      H1     8.82631    3.51207    0.21318

