27
frame 2 | Written by MDAnalysis XYZWriter (release 2.4.3)
       H    -4.99254   -8.57245    5.65829
       O    -5.71395   -7.97095    5.34015
      H1    -6.50881   -8.37992    5.65714
       H    -6.73627   -8.81673    8.65628
       O    -7.63262   -8.82721    9.10969
      H1    -8.12242   -9.55870    8.69750
       H    -9.91578  -11.04709    9.57837
       O    -9.43043  -11.30291    8.75213
      H1   -10.10431  -11.13079    8.04961
       H    -7.72809   -9.88791    5.14520
       O    -8.17826   -9.15439    5.49138
      H1    -8.24671   -8.45991    4.88223
       H    -6.22837  -10.55728   13.13001
       O    -6.42344  -10.64468   12.19589
      H1    -6.59629   -9.74256   11.86412
       H    -7.68053   -8.21873   10.62384
       O    -7.38939   -7.86304   11.48876
      H1    -8.23341   -7.38371   11.62864
       H    -4.27488   -9.11428    8.91221
       O    -4.93265   -9.58512    8.40621
      H1    -5.09987  -10.48692    8.81146
       H    -8.97579   -7.87606    8.27303
       O    -9.83894   -7.51143    8.00506
      H1    -9.77284   -7.05637    7.12383
       H    -5.70335  -12.15449   10.66340
       O    -5.14968  -11.92439    9.93044
      H1    -5.31777  -12.58177    9.29503

