27
frame 2 | Written by MDAnalysis XYZWriter (release 2.4.3)
       H     7.73549  -13.73320  -12.41753
       O     6.78148  -13.78330  -12.59554
      H1     6.64348  -14.72587  -12.47999
       H     6.07851  -12.36165  -15.52642
       O     6.59878  -13.04941  -16.03195
      H1     6.37690  -13.87217  -15.53469
       H     8.13157  -17.71474   -9.91246
       O     8.29432  -16.77058  -10.07172
      H1     7.71798  -16.57452  -10.83754
       H     6.20936  -12.91044  -10.59371
       O     6.60265  -13.01715   -9.68800
      H1     6.15898  -12.28258   -9.15316
       H     3.46171  -14.49538  -12.22826
       O     4.18325  -13.97006  -11.82139
      H1     5.00288  -14.05919  -12.34667
       H    10.11401  -15.74602  -13.12503
       O     9.35595  -15.89416  -13.65215
      H1     9.61250  -15.66219  -14.60661
       H    10.22720  -13.69188  -12.07818
       O     9.38958  -13.31759  -11.72602
      H1     9.64375  -12.67575  -11.02192
       H     9.07289   -9.98371  -11.64206
       O     8.70642  -10.54798  -12.40356
      H1     8.59215  -11.44896  -12.07507
       H     7.52824  -16.62357  -13.09643
       O     6.74589  -16.58693  -12.56617
      H1     6.81261  -17.41798  -12.07307

