27
frame 3 | Written by MDAnalysis XYZWriter (release 2.4.3)
       H    12.46055   -6.43833   10.11577
       O    11.48859   -6.60716   10.09780
      H1    11.02344   -5.75877   10.15672
       H     8.82281   -9.94754    6.41819
       O     8.38503   -9.52070    5.72478
      H1     8.54578  -10.08795    4.90526
       H     7.37550   -6.38660    5.16606
       O     8.02235   -6.81955    5.73717
      H1     7.87966   -7.73781    5.64096
       H    10.74272   -4.57965    6.93874
       O    11.55909   -4.93947    7.24092
      H1    11.93377   -5.57168    6.59972
       H    10.10502   -8.09142    4.42978
       O    10.66709   -7.45086    3.99494
      H1    10.85411   -7.76488    3.08169
       H     7.35794   -4.97250    8.32047
       O     8.21025   -5.29027    8.03548
      H1     7.96770   -5.85746    7.34589
       H    12.38802   -7.44279    6.46293
       O    13.21903   -7.38034    5.91544
      H1    12.86470   -7.00648    5.08958
       H    10.16329   -7.44302    7.40767
       O    10.98044   -7.73727    7.71827
      H1    11.23458   -7.11393    8.44070
       H    10.02411   -9.11231    7.88908
       O     9.53989   -9.94519    8.02013
      H1    10.16969  -10.70051    8.10104

