27
frame 3 | Written by MDAnalysis XYZWriter (release 2.4.3)
       H    -5.04408  -11.84405  -16.02373
       O    -4.69917  -12.72075  -15.63925
      H1    -4.26222  -13.27605  -16.34086
       H    -4.37491  -18.61931  -14.19023
       O    -4.04566  -17.86660  -14.61910
      H1    -3.33622  -17.47466  -14.07546
       H    -7.06398  -17.25897  -12.03425
       O    -7.03383  -16.29077  -11.99483
      H1    -6.70759  -16.03253  -12.82724
       H    -5.34850  -14.90262  -11.81294
       O    -4.99199  -14.05329  -12.07975
      H1    -5.77568  -13.48403  -12.08401
       H    -5.09896  -16.43620  -14.73520
       O    -5.63903  -15.62597  -14.93227
      H1    -5.04772  -14.84741  -14.72966
       H    -5.70921  -11.81699  -13.85056
       O    -6.49877  -11.91748  -13.28905
      H1    -6.70570  -11.10171  -12.84613
       H    -2.54915  -13.82465  -17.20726
       O    -3.32161  -14.33987  -17.41337
      H1    -3.13816  -15.26319  -17.25932
       H    -5.79887  -16.96831  -17.89372
       O    -6.06958  -16.06324  -17.84410
      H1    -5.99176  -15.84279  -16.91685
       H    -2.96905  -12.19137  -14.53242
       O    -2.02529  -12.32303  -14.31832
      H1    -2.07140  -12.22439  -13.35483

