27
frame 2 | Written by MDAnalysis XYZWriter (release 2.4.3)
       H    -8.13690   -8.05894  -17.15499
       O    -8.27744   -8.87842  -17.65872
      H1    -7.97509   -8.59947  -18.52181
       H    -9.16062   -4.38907  -15.94462
       O    -9.87437   -4.95858  -16.26693
      H1   -10.26015   -4.62156  -17.07049
       H   -11.88001   -3.89264  -18.88671
       O   -11.18173   -4.56684  -18.82653
      H1   -10.78045   -4.65001  -19.67758
       H    -8.80696   -2.11307  -18.80867
       O    -8.62449   -1.95083  -19.71747
      H1    -8.51604   -2.83268  -20.05193
       H    -3.88065   -5.57888  -17.53311
       O    -4.32835   -4.81768  -17.15615
      H1    -3.72535   -4.13200  -16.86874
       H    -7.26789   -6.19800  -17.52821
       O    -7.67834   -6.50900  -16.67063
      H1    -8.43962   -5.88089  -16.59244
       H    -4.36376   -5.46324  -15.58013
       O    -4.32995   -5.76449  -14.61292
      H1    -5.27774   -5.91523  -14.44680
       H    -5.98046   -5.05499  -18.23246
       O    -6.51725   -5.54191  -18.92836
      H1    -5.86407   -6.07598  -19.40819
       H    -3.33009   -8.13926  -18.33460
       O    -3.16526   -7.20813  -18.38333
      H1    -2.49364   -7.13356  -19.06016

