27
frame 0 | Written by MDAnalysis XYZWriter (release 2.4.3)
       H   -17.78012  -14.87810   -9.72648
       O   -18.44531  -15.09949  -10.35276
      H1   -18.17179  -14.80809  -11.26440
       H   -16.53992  -11.97378  -16.54299
       O   -16.67010  -12.95616  -16.36861
      H1   -16.91560  -12.88021  -15.42328
       H   -19.93560  -18.72025  -18.95239
       O   -19.26297  -19.21624  -19.40809
      H1   -18.47734  -18.67314  -19.20198
       H   -15.93709  -17.82761  -14.78317
       O   -15.43423  -17.60997  -13.98368
      H1   -15.51872  -18.31603  -13.27817
       H   -16.87570  -17.48363  -18.25613
       O   -17.08829  -17.56191  -19.18518
      H1   -17.07550  -16.76729  -19.64306
       H   -17.21015  -14.66004  -13.21183
       O   -18.17751  -14.74838  -13.04961
      H1   -18.37374  -15.58806  -13.47784
       H   -17.13703  -16.82301  -16.16698
       O   -16.51088  -17.35295  -16.70859
      H1   -15.67641  -16.85879  -16.82311
       H   -15.01225  -12.73579  -13.25090
       O   -15.39180  -13.61549  -13.37361
      H1   -15.02891  -13.94436  -14.24585
       H   -18.81814  -17.50217  -14.99901
       O   -18.63728  -16.62121  -15.21024
      H1   -19.39150  -16.34485  -15.73193

