27
frame 2 | Written by MDAnalysis XYZWriter (release 2.4.3)
       H    17.78129  -11.04160  -16.19797
       O    18.63988  -11.17665  -15.80262
      H1    18.96791  -10.28805  -15.59352
       H    17.39515   -7.60994  -17.77707
       O    17.72816   -7.27341  -18.60873
      H1    18.55767   -6.82767  -18.22099
       H    12.53457   -8.68874  -17.51207
       O    13.32790   -9.27116  -17.56456
      H1    13.49082   -9.35376  -18.48524
       H    18.05154  -13.51043  -18.33897
       O    18.97940  -13.34910  -18.56092
      H1    19.01055  -13.51525  -19.49991
       H    16.01318  -12.32172  -18.27899
       O    15.96729  -13.26162  -18.50510
      H1    15.56631  -13.80059  -17.79865
       H    16.37780   -9.81389  -17.51515
       O    16.73090  -10.71221  -17.78118
      H1    17.40907  -10.42983  -18.40570
       H    18.59007   -8.83976  -19.19291
       O    18.65675   -9.75525  -19.56632
      H1    19.25246  -10.22816  -18.89926
       H    15.51698   -8.94298  -14.92968
       O    15.16289   -9.40172  -14.11280
      H1    14.80763  -10.26777  -14.45121
       H    14.89319   -8.37656  -17.06747
       O    15.83903   -8.26837  -16.78372
      H1    15.85095   -7.38546  -16.28655

