27
frame 3 | Written by MDAnalysis XYZWriter (release 2.4.3)
       H     1.75969   10.24008   -1.31326
       O     1.77450    9.39903   -1.73551
      H1     2.50575    8.96709   -1.25795
       H     1.32083    6.99589    1.27093
       O     2.00102    6.35709    1.55734
      H1     2.63850    6.88257    2.02336
       H     1.36201    4.42407   -1.73756
       O     2.04062    3.72454   -1.74146
      H1     1.90193    3.41380   -0.83678
       H     3.15401    6.77447   -0.13515
       O     3.64522    7.57653   -0.49943
      H1     3.70480    7.35160   -1.41332
       H     5.37087    8.39375    0.11787
       O     6.30811    8.70517    0.32214
      H1     6.52266    9.32856   -0.36252
       H     4.35271    7.92306    2.62223
       O     3.75977    8.61485    2.97646
      H1     3.59549    9.15649    2.22095
       H     3.38904    6.81606   -3.98842
       O     2.79547    7.14533   -3.31057
      H1     2.04871    7.66418   -3.71161
       H     3.94478    4.37487   -2.13532
       O     4.92326    4.23484   -2.31130
      H1     5.22630    5.16009   -2.29795
       H     4.72927    6.13216    3.54508
       O     5.09304    6.06238    2.64783
      H1     6.05091    5.98635    2.80609

