27
frame 3 | Written by MDAnalysis XYZWriter (release 2.4.3)
       H    13.66142    2.63928  -17.51418
       O    14.60465    2.82520  -17.55142
      H1    14.79754    2.79482  -18.49184
       H    14.71840   -1.82802  -16.64036
       O    14.61572   -0.86336  -16.76575
      H1    15.48396   -0.53361  -16.66716
       H    17.47762    0.45574  -14.91143
       O    17.37735   -0.20219  -15.60505
      H1    17.31863    0.39598  -16.35481
       H    20.27878   -0.12999  -18.44056
       O    19.68585   -0.23610  -17.72876
      H1    18.80622   -0.52126  -18.14087
       H    17.52570    4.82332  -14.68721
       O    18.10375    4.06015  -14.87530
      H1    17.74840    3.41290  -15.55864
       H    16.44913   -1.40248  -19.14817
       O    17.33633   -1.26354  -18.89118
      H1    17.82969   -1.90037  -19.42175
       H    14.14285    3.56535  -14.19566
       O    14.88940    3.16259  -14.64509
      H1    14.73473    3.03457  -15.57224
       H    17.71730   -1.86498  -14.98138
       O    18.16305   -2.70068  -14.65189
      H1    18.59127   -2.41804  -13.84758
       H    18.01483    2.31542  -17.59248
       O    17.41881    2.31412  -16.81258
      H1    16.54867    2.48443  -17.21458

