27
frame 3 | Written by MDAnalysis XYZWriter (release 2.4.3)
       H     8.11353    5.69258   12.67654
       O     8.10230    6.56705   12.17320
      H1     7.24221    6.97977   12.37214
       H    12.05092    2.36367   13.38689
       O    12.49970    1.68782   13.94478
      H1    13.15457    1.25679   13.40502
       H    10.14347    1.12059   12.57554
       O     9.52307    0.34426   12.53024
      H1     8.71043    0.79336   12.75808
       H    11.44836    6.05793   11.84434
       O    10.94394    6.66992   11.25504
      H1     9.99103    6.46578   11.36461
       H    11.24284    3.77571    7.12900
       O    11.18233    4.07502    8.02847
      H1    10.34072    3.64929    8.27714
       H     8.95384    4.11922   14.04682
       O     7.95573    4.29117   13.85223
      H1     7.56097    3.40632   13.94131
       H    10.33473    3.54780   11.61351
       O    10.90046    3.27135   12.30371
      H1    11.59318    3.89507   12.43646
       H     8.53169    3.54525    9.84747
       O     9.32326    2.98925    9.62703
      H1     8.98095    2.08712    9.39620
       H     7.28205    5.19880    9.37483
       O     7.56227    4.84879   10.24061
      H1     7.57109    5.68072   10.76232

