27
frame 3 | Written by MDAnalysis XYZWriter (release 2.4.3)
       H    12.53944    5.37919  -14.12296
       O    12.86792    4.65809  -13.51630
      H1    12.59076    4.90490  -12.63699
       H    17.73423    3.12784  -11.56239
       O    17.00319    3.46920  -11.02803
      H1    16.31084    3.87509  -11.56759
       H    13.93470    8.45656  -11.97027
       O    14.25352    8.83197  -12.81562
      H1    15.17546    9.10464  -12.76091
       H    14.72282    1.44368  -13.61718
       O    14.28139    1.22202  -12.75463
      H1    13.39733    1.70485  -12.73324
       H    10.91036    5.92527  -10.90258
       O    11.79446    5.54220  -10.98419
      H1    12.40349    6.25149  -10.64404
       H    14.14285    3.56535  -14.19566
       O    14.88940    3.16259  -14.64509
      H1    14.73473    3.03457  -15.57224
       H    15.39117    6.08920  -12.78190
       O    15.38862    5.37750  -12.12104
      H1    14.52030    4.95301  -12.28287
       H    12.83568    7.91863   -9.45331
       O    13.49297    7.61947  -10.06925
      H1    14.16437    7.21114   -9.53321
       H    16.21587    6.62633   -8.77816
       O    15.43559    6.07993   -8.69852
      H1    15.61239    5.28687   -9.19945

