27
frame 3 | Written by MDAnalysis XYZWriter (release 2.4.3)
       H     5.61548   -1.57472    3.64967
       O     5.24170   -1.04850    2.99288
      H1     5.82570   -0.35457    2.63345
       H     7.18850   -4.74735    3.18581
       O     7.67538   -4.46564    2.43342
      H1     7.20394   -3.77385    1.98742
       H     9.89679   -0.74827    2.24606
       O     9.17559   -0.43693    2.87699
      H1     8.45355   -0.00786    2.32650
       H     7.04267   -0.16631    6.28480
       O     6.96710    0.50724    6.97828
      H1     7.73657    0.43717    7.55736
       H     9.31141   -4.58227    3.26194
       O    10.08432   -4.68782    3.83357
      H1    10.18935   -5.70993    3.95898
       H     9.35823   -0.42138    7.98895
       O     9.01592    0.20028    8.65010
      H1     8.55646   -0.26796    9.35890
       H    11.76376   -0.45858    7.17037
       O    10.91728   -0.79589    6.87708
      H1    11.13186   -1.70145    6.67638
       H     8.21188   -2.37460    5.60664
       O     7.69539   -1.59859    5.26759
      H1     8.12495   -1.24704    4.50408
       H     8.86234   -4.00012    6.46103
       O     9.37493   -3.34105    6.01548
      H1     9.75973   -3.78820    5.23309

