27
frame 3 | Written by MDAnalysis XYZWriter (release 2.4.3)
       H    -5.04744    2.77207   -2.31479
       O    -4.49627    2.60335   -3.11096
      H1    -5.29594    2.52689   -3.69816
       H    -2.75019    5.03367   -0.11924
       O    -2.39559    4.30038   -0.68066
      H1    -2.24953    3.60581   -0.02360
       H    -5.26162   -2.11873   -2.76887
       O    -4.29810   -2.34427   -2.51748
      H1    -3.81593   -1.87517   -3.25411
       H    -5.56687    2.15139    0.45856
       O    -5.47911    1.27679    0.89288
      H1    -5.35341    0.44999    0.26975
       H    -0.67452    0.98327   -1.38485
       O     0.31250    0.90980   -1.40101
      H1     0.54865    1.36411   -2.24922
       H    -4.82601   -1.73026   -0.74630
       O    -4.91741   -1.30747    0.09678
      H1    -5.85065   -1.51208    0.44701
       H    -2.18632   -1.73342    0.76263
       O    -1.69703   -1.36054    0.00935
      H1    -1.68529   -1.94971   -0.71962
       H    -2.08203    1.68422    0.19794
       O    -1.82116    2.12982    1.02521
      H1    -2.56546    2.27989    1.66868
       H    -2.95013    0.36285   -1.13562
       O    -2.68524    1.27253   -1.22479
      H1    -3.10415    1.76679   -1.91545

