27
frame 3 | Written by MDAnalysis XYZWriter (release 2.4.3)
       H   -12.50889  -17.63295  -16.05942
       O   -12.12436  -17.59310  -16.96254
      H1   -11.40173  -18.24164  -16.90155
       H   -10.02486  -15.36583  -15.82424
       O   -10.21097  -14.61473  -15.30929
      H1    -9.50343  -13.95461  -15.26649
       H   -15.23679  -14.47647  -17.62857
       O   -15.34000  -14.98454  -18.42605
      H1   -14.48237  -15.24536  -18.81218
       H   -13.73501  -18.48023  -18.64293
       O   -13.52006  -19.03085  -19.36588
      H1   -13.78859  -18.50867  -20.22426
       H   -15.03192  -18.41712  -15.73302
       O   -14.56646  -18.86694  -14.97419
      H1   -14.13678  -19.68166  -15.31320
       H   -12.80227  -16.32370  -20.32590
       O   -13.00306  -15.80541  -19.52300
      H1   -12.60308  -16.19526  -18.77443
       H   -16.49847  -16.90249  -16.27626
       O   -15.86332  -17.45836  -16.78027
      H1   -15.42017  -16.72684  -17.23323
       H    -9.47083  -16.61979  -18.67547
       O    -9.85039  -16.51020  -19.54487
      H1   -10.23217  -15.59500  -19.57664
       H    -8.87960  -17.78855  -17.15383
       O    -8.71912  -16.79902  -17.17973
      H1    -7.76426  -16.72198  -17.40423

