27
frame 3 | Written by MDAnalysis XYZWriter (release 2.4.3)
       H    18.17087   16.77950   -7.66659
       O    17.22810   16.81043   -7.53885
      H1    17.18058   16.47158   -6.64309
       H    17.85651   16.10555  -12.56346
       O    17.41131   16.59486  -11.79647
      H1    17.00822   15.84769  -11.35283
       H    13.43010   12.47778  -11.43358
       O    13.95217   12.95101  -12.12969
      H1    13.68811   13.86858  -12.05297
       H    16.06502   12.99611   -9.40941
       O    15.82358   12.20661   -8.93616
      H1    16.57968   11.97078   -8.31137
       H    12.92317   15.98018   -8.76429
       O    13.36553   15.68466   -9.54996
      H1    12.98151   15.92360  -10.39453
       H    16.37306   18.65465   -9.94000
       O    16.75859   18.94402   -9.04526
      H1    16.91969   18.12656   -8.52807
       H    15.41308   15.51422   -9.72515
       O    16.25085   15.12107   -9.68073
      H1    16.55849   15.45254   -8.82164
       H    18.69898   15.55664  -10.13676
       O    19.50520   15.01982  -10.25647
      H1    20.08033   15.37632   -9.56636
       H    15.02674   12.56910   -6.06758
       O    14.86037   13.30278   -6.66457
      H1    14.99571   12.94893   -7.54612

