27
frame 3 | Written by MDAnalysis XYZWriter (release 2.4.3)
       H    -6.04770  -19.64301  -16.70692
       O    -5.85578  -18.74599  -16.47231
      H1    -5.04296  -18.69655  -15.98522
       H    -8.05012  -17.19277  -15.30696
       O    -7.90628  -17.79219  -14.58205
      H1    -7.11054  -18.21918  -14.92391
       H    -4.37491  -18.61931  -14.19023
       O    -4.04566  -17.86660  -14.61910
      H1    -3.33622  -17.47466  -14.07546
       H    -7.06398  -17.25897  -12.03425
       O    -7.03383  -16.29077  -11.99483
      H1    -6.70759  -16.03253  -12.82724
       H    -5.09896  -16.43620  -14.73520
       O    -5.63903  -15.62597  -14.93227
      H1    -5.04772  -14.84741  -14.72966
       H    -1.77485  -16.85287  -12.01359
       O    -1.71088  -17.22864  -12.88457
      H1    -1.03294  -17.92640  -13.00809
       H    -2.54915  -13.82465  -17.20726
       O    -3.32161  -14.33987  -17.41337
      H1    -3.13816  -15.26319  -17.25932
       H    -1.85761  -16.97467  -17.23163
       O    -2.80596  -17.00760  -17.06565
      H1    -2.91802  -17.18829  -16.12700
       H    -5.79887  -16.96831  -17.89372
       O    -6.06958  -16.06324  -17.84410
      H1    -5.99176  -15.84279  -16.91685

