27
frame 3 | Written by MDAnalysis XYZWriter (release 2.4.3)
       H     7.87438   -2.03394   11.16816
       O     7.58057   -1.51836   10.42295
      H1     7.09903   -2.24462    9.98473
       H     5.46199   -3.68675    8.60457
       O     6.20537   -3.87283    9.21697
      H1     5.92735   -4.49902    9.92002
       H     7.35794   -4.97250    8.32047
       O     8.21025   -5.29027    8.03548
      H1     7.96770   -5.85746    7.34589
       H     7.04267   -0.16631    6.28480
       O     6.96710    0.50724    6.97828
      H1     7.73657    0.43717    7.55736
       H     9.35823   -0.42138    7.98895
       O     9.01592    0.20028    8.65010
      H1     8.55646   -0.26796    9.35890
       H     8.45794   -4.37049   12.05357
       O     8.62740   -3.40836   12.20399
      H1     8.80793   -3.30350   13.14631
       H     5.14782   -4.83705   12.26053
       O     5.35330   -5.46668   11.54115
      H1     6.23946   -5.79857   11.76954
       H     6.19792    0.08274   10.83054
       O     5.57813    0.70395   11.23635
      H1     4.69060    0.28489   11.33730
       H     9.34308   -3.98979    9.25594
       O     9.90154   -4.09437   10.04588
      H1     9.49169   -3.55927   10.81667

