27
frame 3 | Written by MDAnalysis XYZWriter (release 2.4.3)
       H    13.03748  -17.95582   11.26758
       O    13.95999  -18.33835   11.26954
      H1    14.03713  -18.87081   10.48595
       H    16.95761  -17.66308   12.63241
       O    16.56700  -18.43179   12.22406
      H1    15.62456  -18.30780   12.08224
       H    17.02426  -18.30802    9.36738
       O    17.37360  -19.07565    9.83651
      H1    17.05611  -18.97766   10.79460
       H    13.75201  -19.88041    8.33005
       O    14.40937  -19.31075    8.72400
      H1    15.19165  -19.87679    8.67511
       H    13.14141  -16.02243    8.16158
       O    13.22663  -16.83693    7.72435
      H1    13.62442  -17.33031    8.44768
       H    18.13834  -14.16841   10.22130
       O    17.53520  -14.94287   10.22288
      H1    17.41163  -15.26707   11.14811
       H    14.29208  -18.39321    5.47372
       O    14.60215  -19.24096    5.84720
      H1    14.85324  -19.01472    6.75700
       H    17.42770  -16.59596    6.49513
       O    17.89952  -16.68225    5.63701
      H1    18.42988  -17.51229    5.59627
       H    16.97198  -15.98272    8.67459
       O    16.44546  -16.55996    8.11497
      H1    15.56350  -16.22021    8.30820

