27
frame 4 | Written by MDAnalysis XYZWriter (release 2.4.3)
       H    -0.52526   11.07837    8.37140
       O    -1.39022   11.29975    8.57147
      H1    -1.34485   11.43237    9.55387
       H    -1.66447   16.07566    9.05574
       O    -1.49723   16.73096    8.41442
      H1    -1.17600   16.13158    7.69483
       H    -0.62063   13.12034    8.52429
       O    -0.19902   13.98691    8.77862
      H1     0.04799   14.38573    7.91395
       H     1.97400   13.75447    4.74996
       O     2.14796   14.11312    5.61624
      H1     2.36917   13.36256    6.16325
       H     0.28155   18.52378   10.35225
       O     0.59332   17.74878    9.86523
      H1    -0.21804   17.27174    9.66275
       H    -0.72799   15.19229    5.94408
       O     0.00251   15.60899    6.40946
      H1     0.86515   15.12833    6.16737
       H     2.27787   14.92008   10.36126
       O     2.93273   14.38892    9.86260
      H1     3.09560   14.79751    8.95547
       H    -0.97473   13.53380   11.90518
       O    -0.12211   13.67644   11.45149
      H1    -0.23709   13.67296   10.47433
       H     1.72370   12.62513    9.90630
       O     1.92815   11.70773    9.92003
      H1     1.35825   11.39387   10.65586

