27
frame 3 | Written by MDAnalysis XYZWriter (release 2.4.3)
       H    -2.71524   17.59784   -3.65696
       O    -3.04064   17.34228   -2.78799
      H1    -2.79633   18.03361   -2.18144
       H    -0.66653   14.95923   -2.29652
       O    -1.62094   15.04898   -2.23685
      H1    -1.85982   15.98928   -2.45914
       H     2.47586   19.77294    0.43866
       O     2.36212   18.87098    0.13666
      H1     1.43060   18.67626    0.17416
       H    -2.17018   15.64083    1.76549
       O    -1.56460   16.28400    2.10519
      H1    -2.15254   17.05252    2.21971
       H     0.36187   19.46223   -4.90800
       O    -0.13788   19.05781   -4.25948
      H1    -0.81974   19.68210   -4.02034
       H    -0.55767   17.10086    0.56469
       O    -0.26699   17.53587   -0.23896
      H1    -0.31878   17.07371   -1.05042
       H    -1.50530   18.92832   -0.63587
       O    -2.15347   19.36239   -1.26031
      H1    -2.67013   19.85098   -0.62245
       H    -6.04134   17.35600    1.37310
       O    -5.07450   17.46183    1.40584
      H1    -4.95553   18.42033    1.02756
       H    -4.98394   17.19093   -2.65928
       O    -5.87346   17.44813   -2.92675
      H1    -6.59594   17.02319   -2.47367

