27
frame 3 | Written by MDAnalysis XYZWriter (release 2.4.3)
       H   -10.66967  -13.77862   -7.22002
       O   -10.02321  -13.09210   -7.28034
      H1    -9.80058  -12.87139   -6.36959
       H    -9.44322  -13.59856   -3.55621
       O    -9.46074  -12.67191   -3.46614
      H1    -9.71619  -12.52179   -2.56857
       H   -11.36939   -8.64741   -4.12372
       O   -11.27623   -7.86790   -3.57232
      H1   -10.89790   -7.22140   -4.16226
       H    -6.87658   -7.11254   -3.63095
       O    -6.26471   -7.82956   -3.80462
      H1    -6.78479   -8.53563   -4.14451
       H    -8.41572   -9.24382   -6.12858
       O    -7.62960   -9.73371   -5.75169
      H1    -8.06953  -10.29559   -5.06003
       H    -8.61045   -9.23648   -2.33158
       O    -9.32989   -8.85894   -1.80136
      H1   -10.01289   -8.38829   -2.34372
       H    -7.79352  -11.66298   -3.31621
       O    -7.27477  -10.97080   -2.88015
      H1    -6.47771  -11.36042   -2.50098
       H    -6.84529  -11.11569   -6.96691
       O    -6.39325  -11.92109   -7.32330
      H1    -6.63793  -11.97511   -8.29842
       H   -10.85713   -8.09625   -7.07006
       O   -10.06560   -8.66604   -6.98612
      H1   -10.00504   -9.10964   -7.86471

