27
frame 0 | Written by MDAnalysis XYZWriter (release 2.4.3)
       H    18.76949   -4.79813    7.23019
       O    18.58650   -4.08564    7.87319
      H1    17.80855   -4.37742    8.41643
       H    17.02090   -7.29250    3.99181
       O    16.13166   -7.78215    3.98245
      H1    16.07931   -8.08753    4.87314
       H    18.94270  -10.94833    5.90359
       O    18.64466  -10.24076    5.27865
      H1    17.67022  -10.38204    5.21811
       H    13.99867   -5.87936    8.20027
       O    14.59688   -6.50360    8.64400
      H1    14.88892   -7.13440    7.91038
       H    18.85032   -7.17189    2.69604
       O    18.53070   -6.72918    3.55702
      H1    18.35184   -5.83398    3.26724
       H    18.57461   -9.09447    6.40872
       O    18.38372   -8.48630    7.13422
      H1    18.73588   -7.63582    6.83354
       H    15.26705   -9.24513    6.88047
       O    15.62175   -8.31137    6.83936
      H1    16.58127   -8.31172    6.97800
       H    20.22236   -6.09848    5.88358
       O    19.30977   -6.10906    6.17003
      H1    18.91849   -6.30093    5.23743
       H    18.38372   -8.42166    8.96381
       O    18.43159   -8.65550    9.92022
      H1    18.17244   -9.63978    9.93115

