27
frame 4 | Written by MDAnalysis XYZWriter (release 2.4.3)
       H    13.07414   -5.04824    3.93908
       O    13.79696   -5.25087    4.67174
      H1    14.47967   -5.73427    4.20194
       H    10.70506   -3.88242    6.87364
       O    11.63366   -4.24009    6.79878
      H1    11.82313   -4.13621    5.86748
       H    10.24092   -1.85151    3.44638
       O     9.85948   -1.95453    4.31586
      H1     8.89538   -1.76536    4.24082
       H    11.70525   -7.53066    5.05852
       O    10.95615   -7.37042    4.45414
      H1    11.27677   -7.55062    3.55654
       H    12.13977   -1.96220    2.29713
       O    11.39168   -2.06539    1.70227
      H1    11.18590   -3.01984    1.97644
       H    11.62531   -5.14811    2.24143
       O    11.59026   -4.52220    2.98383
      H1    10.74509   -4.68674    3.47472
       H     8.42554   -5.42724    4.02343
       O     9.23010   -5.16858    4.46003
      H1     9.65712   -5.97885    4.48911
       H    14.58342   -6.78222    1.16853
       O    14.08759   -6.16766    1.76445
      H1    14.24533   -5.36182    1.22502
       H    12.44895   -7.16945    1.54923
       O    11.73826   -7.81646    1.82115
      H1    12.16264   -8.63861    1.51995

