27
frame 4 | Written by MDAnalysis XYZWriter (release 2.4.3)
       H   -10.38763    6.71893   13.73623
       O   -10.83316    6.81241   14.61350
      H1   -11.52519    7.44587   14.51311
       H   -13.95185    4.87484   14.50971
       O   -13.57952    5.18976   13.59393
      H1   -13.01010    5.90006   13.87280
       H   -16.78168    6.60092   15.60966
       O   -16.14198    7.29731   15.35741
      H1   -15.98056    7.04993   14.45238
       H   -11.74328   10.72171   15.79198
       O   -12.47672   11.02585   16.27338
      H1   -13.11800   10.31904   16.12889
       H   -15.18305   10.59961   14.29396
       O   -14.95038    9.88685   13.67321
      H1   -15.76095    9.39368   13.84703
       H   -13.52051    8.81682   14.45782
       O   -12.92064    8.30132   15.06259
      H1   -13.43998    7.81493   15.76314
       H   -14.72394    7.08797   16.48684
       O   -14.01298    6.85173   17.14355
      H1   -13.47972    6.13021   16.76971
       H   -11.64068    4.61654   16.82933
       O   -11.62105    5.57080   16.80252
      H1   -11.30603    5.86182   15.97755
       H   -11.29538    8.61760   17.49325
       O   -11.33426    8.18757   18.34683
      H1   -11.39359    7.21835   18.20840

