27
frame 4 | Written by MDAnalysis XYZWriter (release 2.4.3)
       H    12.96757    9.79220  -15.55962
       O    12.67641   10.76530  -15.60874
      H1    13.52643   11.17917  -15.48470
       H    13.87371    7.45126  -15.47914
       O    13.79602    8.37341  -15.76914
      H1    13.38827    8.31032  -16.67382
       H    11.84737    5.75647  -14.46003
       O    12.81371    5.62693  -14.53442
      H1    12.85145    5.24381  -15.41771
       H    12.83310    8.38387  -12.49617
       O    11.94496    8.72797  -12.23115
      H1    11.65142    8.04819  -11.53899
       H    15.52433    9.68478  -15.99850
       O    16.25422   10.32142  -15.97543
      H1    16.66786   10.38542  -16.86256
       H    15.13891    4.55544  -17.64905
       O    14.99242    5.56143  -17.54594
      H1    15.30674    5.97588  -18.34781
       H    16.24711    6.40807  -16.72554
       O    17.02759    6.82459  -16.28099
      H1    16.70336    7.30635  -15.53728
       H    12.31374    9.38103  -18.30330
       O    12.85607    8.59842  -18.28408
      H1    12.26333    7.86910  -18.46341
       H    17.75624    7.92443  -14.03998
       O    16.97337    8.52149  -13.97438
      H1    17.05626    9.29733  -14.60686

