27
frame 4 | Written by MDAnalysis XYZWriter (release 2.4.3)
       H    -3.50446    9.38083   -0.58701
       O    -4.28194    8.96833   -0.20133
      H1    -4.84494    8.88765   -0.99943
       H    -4.01087    9.14488   -4.61643
       O    -4.16248    9.88284   -3.97902
      H1    -4.91617    9.50302   -3.55042
       H    -5.02718    5.72490   -3.59577
       O    -5.03022    5.86393   -2.64226
      H1    -4.18647    5.68545   -2.31911
       H    -3.66259    7.49977    1.22951
       O    -3.79895    6.58321    1.47140
      H1    -3.25761    6.40275    2.27542
       H    -8.01825    8.46888    0.60134
       O    -8.42475    7.61730    0.65469
      H1    -7.70168    6.94056    0.58320
       H    -4.25639    9.98538    1.37903
       O    -3.89012   10.53376    2.07243
      H1    -4.52038   11.16337    2.37407
       H    -2.76526   11.06038   -1.35952
       O    -2.54048   10.33323   -1.88545
      H1    -3.30824   10.19296   -2.54051
       H    -6.89371   12.37557   -0.68918
       O    -7.12760   11.44873   -0.78686
      H1    -6.81287   11.34868   -1.65601
       H    -6.85657    8.32968   -2.23053
       O    -5.94007    8.50245   -2.41856
      H1    -5.66201    7.64037   -2.81308

