27
frame 5 | Written by MDAnalysis XYZWriter (release 2.4.3)
       H     8.93151   14.18784  -12.09080
       O     8.28647   14.68945  -12.63234
      H1     7.95087   14.01648  -13.18332
       H     6.52919   16.24340  -12.99391
       O     6.34287   16.85427  -13.70929
      H1     6.98919   17.54845  -13.47760
       H     8.65531   15.28813   -9.02134
       O     8.21990   16.00605   -9.50263
      H1     8.92744   16.65539   -9.68538
       H     5.20172   16.17671  -10.06688
       O     5.86494   15.93022  -10.80166
      H1     6.70056   15.93676  -10.27445
       H     3.94425   16.73409   -8.16191
       O     3.96500   15.98503   -8.75492
      H1     4.41154   15.22968   -8.27113
       H     6.02383   17.79626  -10.93595
       O     5.59727   18.64358  -10.84252
      H1     4.76033   18.55129  -11.35113
       H     6.95182   18.76596   -7.54157
       O     7.31114   17.89927   -7.38444
      H1     7.45356   17.46152   -8.24282
       H     5.36104   14.11622  -11.24897
       O     4.85253   13.29622  -11.54945
      H1     3.94793   13.45436  -11.19085
       H     5.71382   12.90951  -10.07702
       O     6.34075   12.64416   -9.33596
      H1     5.99934   11.77855   -9.03370

