27
frame 5 | Written by MDAnalysis XYZWriter (release 2.4.3)
       H     4.34887  -13.11593  -14.59128
       O     4.08698  -13.67589  -15.35837
      H1     4.54067  -14.52535  -15.18242
       H     9.73247  -13.31181  -17.66920
       O     9.41603  -12.60125  -18.26871
      H1     8.48271  -12.70711  -18.35262
       H     3.20048  -15.66622  -17.31099
       O     2.85623  -15.75358  -18.19014
      H1     3.36269  -15.07280  -18.69839
       H     5.25832   -8.92222  -17.99619
       O     4.69069   -9.12768  -18.75325
      H1     5.23061   -9.47451  -19.48573
       H     3.77366  -13.02694  -18.39479
       O     4.59402  -13.47963  -18.14704
      H1     4.59148  -13.56641  -17.20690
       H     1.75771  -12.53859  -17.99170
       O     2.22231  -12.23861  -18.84229
      H1     1.97025  -11.30250  -19.00526
       H     7.63570   -9.72393  -16.67524
       O     7.82072  -10.63797  -16.78152
      H1     8.55280  -10.71444  -17.42846
       H     7.11252  -11.33081  -18.10966
       O     6.91464  -11.98459  -18.82417
      H1     6.15370  -12.46828  -18.51817
       H     8.41193  -16.47402  -18.45720
       O     8.05423  -15.76706  -17.86178
      H1     7.44484  -15.25792  -18.43001

