27
frame 4 | Written by MDAnalysis XYZWriter (release 2.4.3)
       H     8.99794   -1.58653   -0.58750
       O     8.47513   -2.25656   -1.01400
      H1     9.11552   -2.99176   -1.17162
       H    11.73496   -1.98249    0.03945
       O    11.65942   -2.10233   -0.96491
      H1    12.54283   -2.12559   -1.28691
       H     6.00207   -2.36757    0.94615
       O     6.12432   -3.03543    0.27053
      H1     6.88827   -2.72044   -0.18997
       H     6.76197   -5.41303    2.56188
       O     7.43467   -5.09358    1.89448
      H1     6.94078   -4.47387    1.32332
       H    10.23051    0.81889   -2.16732
       O     9.51675    1.51418   -2.13103
      H1     8.74365    1.09730   -2.50673
       H     4.60588   -3.78876   -2.85322
       O     5.35006   -4.12949   -2.38880
      H1     5.27502   -3.61872   -1.57675
       H     9.82538   -4.50214   -2.92894
       O    10.07230   -3.61097   -2.95835
      H1    10.80243   -3.44536   -2.31869
       H     7.83190   -0.75289   -3.41004
       O     8.41080   -1.47654   -3.77512
      H1     8.57407   -2.11125   -3.06575
       H     9.24057    0.95558   -0.29439
       O     9.37766    0.29150    0.38187
      H1    10.08592    0.60294    0.92542

