27
frame 5 | Written by MDAnalysis XYZWriter (release 2.4.3)
       H     1.52774   -7.35410   14.24193
       O     2.05648   -6.87160   14.86786
      H1     2.99378   -6.91542   14.55610
       H     4.92933   -9.15825   14.65291
       O     5.47438   -8.95175   13.88165
      H1     5.02644   -9.18204   13.08525
       H     5.06245   -4.00537   12.03402
       O     5.20147   -4.97729   11.93795
      H1     6.14655   -5.23238   11.82878
       H     4.82910   -5.62610   13.39927
       O     4.70335   -6.22847   14.17628
      H1     4.84080   -7.09950   13.77596
       H     1.61392   -4.20433   13.05260
       O     1.95147   -4.31485   13.96601
      H1     1.98529   -5.30305   14.08145
       H     8.34249   -9.20466   15.55908
       O     8.14968   -9.46473   14.63722
      H1     7.31563   -9.04516   14.41218
       H     6.62945   -5.54253   14.75333
       O     7.46836   -5.25715   15.14041
      H1     7.25189   -4.29627   15.26976
       H     6.71600   -5.92873   16.69115
       O     6.89540   -6.11979   17.63283
      H1     7.24599   -5.22553   17.86735
       H     2.41856   -7.69956   16.44432
       O     2.49811   -8.39396   17.12221
      H1     2.68452   -7.83906   17.92745

