27
frame 4 | Written by MDAnalysis XYZWriter (release 2.4.3)
       H   -18.73549   11.25477    5.61321
       O   -18.83375   11.37547    6.55130
      H1   -18.18532   12.08770    6.69701
       H   -19.41006    7.24401    3.82074
       O   -19.11105    8.12679    4.10184
      H1   -18.12193    8.01958    4.11863
       H   -17.65750   11.11829    3.18604
       O   -17.98890   10.79567    4.02421
      H1   -18.63287   10.12551    3.78828
       H   -18.99380    4.32623    3.37651
       O   -18.36325    3.93945    3.95188
      H1   -17.57567    3.90918    3.40415
       H   -17.24282    7.52354    7.34761
       O   -17.41969    6.63978    7.12577
      H1   -18.41844    6.64809    6.96120
       H   -16.59256   11.22806    4.98121
       O   -15.95351   11.64436    5.55689
      H1   -15.14648   11.09953    5.59324
       H   -15.88951    6.67019    4.29930
       O   -16.34108    7.40984    3.89627
      H1   -16.00658    7.36540    2.96983
       H   -15.28509    8.06710    4.89071
       O   -14.71776    8.69816    5.39855
      H1   -13.82384    8.59058    5.04205
       H   -16.84840    5.14863    1.65188
       O   -17.22420    5.93374    1.23090
      H1   -17.58092    5.53848    0.40563

