27
frame 4 | Written by MDAnalysis XYZWriter (release 2.4.3)
       H    -0.35564  -19.09520   17.95704
       O     0.01806  -19.96057   18.22227
      H1     0.99332  -19.75983   18.24451
       H    -5.74245  -18.18281   12.40092
       O    -4.82139  -18.25890   12.00661
      H1    -4.31779  -18.52884   12.78435
       H    -4.52837  -15.77257   16.14069
       O    -4.29559  -16.32410   15.34593
      H1    -4.84142  -15.94731   14.62650
       H    -6.76160  -17.91010   14.62109
       O    -7.02215  -17.99141   13.72857
      H1    -7.65696  -18.70284   13.75695
       H    -1.22702  -16.21477   14.30722
       O    -1.66210  -16.86184   14.88998
      H1    -2.55660  -16.57643   14.90485
       H    -0.69758  -17.38887   18.39847
       O    -1.32161  -17.77815   17.81773
      H1    -1.83595  -17.12232   17.38483
       H    -4.84900  -18.67415   16.63515
       O    -5.35314  -19.40627   16.97331
      H1    -4.72070  -19.92097   17.53228
       H    -6.56975  -18.72288   18.38319
       O    -6.75273  -18.27492   19.20944
      H1    -7.68854  -18.47757   19.43043
       H    -2.23993  -18.30329   13.89785
       O    -2.52336  -19.19263   13.58033
      H1    -1.68823  -19.65817   13.29629

