27
frame 4 | Written by MDAnalysis XYZWriter (release 2.4.3)
       H   -10.43863  -13.48282   -6.42361
       O   -10.48588  -12.51595   -6.31236
      H1    -9.76793  -12.29469   -5.70120
       H   -10.55662   -8.87688   -5.47775
       O   -10.39335   -7.96546   -5.78081
      H1    -9.48617   -7.89459   -6.08616
       H    -7.08501   -6.27941   -4.20537
       O    -6.32809   -6.85595   -4.34962
      H1    -6.74336   -7.72501   -4.63310
       H    -7.83057   -9.85865   -5.68814
       O    -7.21359   -9.70426   -4.95762
      H1    -7.44833  -10.32689   -4.22016
       H    -9.26662   -9.03992   -3.47804
       O    -9.19303   -8.32704   -2.86979
      H1    -9.35043   -7.50270   -3.30865
       H    -8.03184  -12.31263   -2.87391
       O    -7.29850  -11.64798   -2.94113
      H1    -6.89786  -11.79535   -2.06349
       H    -6.07748  -10.48042   -6.28702
       O    -5.78925  -11.20192   -6.84801
      H1    -6.39619  -11.28469   -7.62659
       H    -8.61044   -8.87894   -7.76249
       O    -8.51988   -9.76112   -7.37636
      H1    -9.16440  -10.33992   -7.86563
       H    -7.61096  -11.94455   -9.15308
       O    -6.99472  -11.19378   -9.30108
      H1    -7.42630  -10.50225   -8.80722

