27
frame 4 | Written by MDAnalysis XYZWriter (release 2.4.3)
       H    13.92895   19.00658   -1.54507
       O    13.96863   19.26102   -2.54027
      H1    14.00455   18.40776   -2.99721
       H    16.04833   17.23223    0.45530
       O    16.68114   17.91738    0.50888
      H1    17.00059   18.17863   -0.34390
       H    10.98821   18.45319   -2.36288
       O    11.20004   19.26198   -2.87408
      H1    12.18508   19.25311   -2.97959
       H    14.19723   16.16808    0.52720
       O    14.15089   16.80812   -0.18689
      H1    13.22506   16.79870   -0.47532
       H    14.77352   14.08302   -1.40420
       O    13.83522   14.37695   -1.61107
      H1    13.69887   15.25147   -1.35775
       H    11.28312   16.34224   -2.50754
       O    11.47692   16.73037   -1.61752
      H1    10.67716   16.56828   -1.10089
       H    10.67864   18.74523   -4.54994
       O    10.69346   18.07723   -5.21844
      H1     9.82975   18.13318   -5.66287
       H    16.42093   18.66743   -3.90439
       O    17.22666   19.01135   -3.45427
      H1    17.72905   19.39976   -4.15620
       H    14.77203   17.87775   -5.03293
       O    14.94156   17.35374   -4.18203
      H1    15.52307   16.67926   -4.58673

