27
frame 5 | Written by MDAnalysis XYZWriter (release 2.4.3)
       H    -7.78719    0.75686  -12.77943
       O    -8.04808   -0.13486  -12.93601
      H1    -8.89520   -0.28718  -12.46428
       H    -7.10347    3.29055   -9.06341
       O    -6.92353    2.84618   -8.21208
      H1    -7.19109    3.39149   -7.49518
       H    -9.63935    3.12167  -11.23644
       O    -9.21233    3.16036  -10.36216
      H1    -9.93151    2.80545   -9.76288
       H    -6.50441   -2.50905  -11.79480
       O    -5.94370   -1.70672  -11.70345
      H1    -6.51720   -1.00980  -12.06635
       H    -3.49258    1.34694  -11.74420
       O    -2.94014    0.77632  -12.27976
      H1    -2.52185    0.20008  -11.64612
       H    -5.00679    1.40159  -10.07598
       O    -4.66866    2.10682  -10.71157
      H1    -5.41786    2.17699  -11.35761
       H    -6.98034    4.59293  -16.23460
       O    -7.34676    3.82890  -15.78466
      H1    -8.15012    3.52661  -16.31756
       H    -7.66395    2.78789  -12.30021
       O    -6.88056    2.23610  -12.50211
      H1    -6.70520    2.28733  -13.43840
       H    -8.29209    4.83199  -14.30277
       O    -8.64813    5.16385  -13.45609
      H1    -8.03244    5.77304  -13.01771

