27
frame 5 | Written by MDAnalysis XYZWriter (release 2.4.3)
       H    -7.59914   -5.91086    6.98598
       O    -7.69558   -4.98105    7.17591
      H1    -7.08501   -4.44196    6.71678
       H    -9.70121   -1.41090    2.70779
       O    -8.83040   -1.76455    2.86954
      H1    -8.27095   -1.03857    3.15184
       H   -10.21962   -5.23252    3.61901
       O    -9.82278   -5.32009    4.47210
      H1    -8.86507   -5.27696    4.35956
       H    -5.25706   -6.03516    5.35297
       O    -5.24778   -5.09009    5.13453
      H1    -5.99279   -4.84821    4.60355
       H    -6.98508   -1.38168    6.17614
       O    -6.68872   -2.29908    6.11231
      H1    -7.18217   -2.57862    5.33203
       H    -8.04228   -2.49505   -0.09563
       O    -8.23665   -1.70842    0.35060
      H1    -8.58078   -2.04142    1.19011
       H    -4.77004   -2.12783    5.52744
       O    -3.92113   -1.75827    5.31900
      H1    -3.27585   -2.47853    5.50715
       H    -6.60155   -3.79274    3.08296
       O    -7.22456   -3.64334    3.78620
      H1    -7.82452   -2.98218    3.40085
       H    -5.41017   -5.06991    1.87029
       O    -5.87045   -4.44733    1.25181
      H1    -5.46987   -4.51680    0.36533

