27
frame 6 | Written by MDAnalysis XYZWriter (release 2.4.3)
       H   -14.72522    1.10152    4.57892
       O   -15.09331    0.29008    4.16762
      H1   -15.98530    0.45991    3.95122
       H   -13.56227   -1.09079    2.71222
       O   -13.62125   -1.41258    1.77294
      H1   -14.22501   -2.16329    1.81316
       H   -11.48858   -0.61365    4.80272
       O   -10.68663   -0.09336    4.87110
      H1   -10.71809    0.45314    5.66140
       H   -13.41467   -2.65779    4.53859
       O   -13.20764   -1.78832    4.95412
      H1   -13.97675   -1.23778    4.98525
       H    -9.78237   -3.57674    6.33552
       O   -10.40374   -2.92518    6.65519
      H1   -10.90161   -2.65356    5.93007
       H   -12.37827   -4.68617    4.33957
       O   -13.26681   -4.37544    4.05242
      H1   -13.87537   -4.83191    4.67284
       H   -13.26418   -0.51001    8.68799
       O   -12.54731   -0.48147    7.99107
      H1   -12.24386   -1.38830    7.86388
       H   -16.99722   -1.32039    5.08127
       O   -16.80978   -1.98414    5.78062
      H1   -17.20165   -2.81814    5.44954
       H   -15.57227   -2.73892    6.82378
       O   -15.23306   -3.16765    7.63988
      H1   -14.61226   -2.61491    8.09148

