27
frame 0 | Written by MDAnalysis XYZWriter (release 2.4.3)
       H    18.27654    5.28942   11.16520
       O    17.69751    5.50082   11.85878
      H1    17.36377    4.71309   12.35427
       H    14.96996    0.17551   10.97903
       O    14.45030   -0.52738   11.45696
      H1    14.30866   -1.25243   10.83734
       H    16.00738    2.29098   12.26053
       O    15.70659    2.91233   13.00054
      H1    15.25219    2.41022   13.64892
       H    16.31303    1.97670   10.17425
       O    16.29622    1.38536   10.90608
      H1    17.18484    0.95013   10.83185
       H    13.50251    4.67020   12.17622
       O    13.71635    3.82677   11.72862
      H1    14.50636    3.42502   12.11690
       H    15.40998    0.93835   15.21335
       O    14.61548    1.37465   14.80575
      H1    14.02042    0.68952   14.47026
       H    16.70259    3.25898   14.26105
       O    17.30568    3.41025   15.01426
      H1    16.65949    3.58984   15.70517
       H    14.60712    5.66265    9.71645
       O    15.56454    5.72004    9.70861
      H1    15.84862    5.66251   10.60937
       H    20.31789    1.22610   14.40546
       O    19.59927    1.17485   13.74222
      H1    18.86030    1.70262   14.06964

