27
frame 5 | Written by MDAnalysis XYZWriter (release 2.4.3)
       H    14.00003   11.53301  -11.63948
       O    14.70712   12.00512  -12.14846
      H1    14.39433   12.95268  -12.14381
       H    16.67227   11.64065  -11.98641
       O    17.55731   11.33095  -12.23005
      H1    18.14926   11.95063  -11.76457
       H    15.07286   10.04108   -8.66326
       O    14.98889    9.79834   -9.59650
      H1    14.13086   10.17154   -9.89677
       H    18.05080   12.76548  -15.55350
       O    18.95560   12.75034  -15.19004
      H1    19.06387   12.09501  -14.48159
       H    14.57168   10.86625  -15.11743
       O    14.36642   11.84145  -14.85845
      H1    14.53831   11.90471  -13.93937
       H    18.60994   12.84996   -9.90374
       O    18.93535   13.02558  -10.79226
      H1    19.13883   14.00612  -10.83401
       H    15.48973    8.03876  -11.51496
       O    15.40818    7.88472  -12.45607
      H1    16.13597    8.37058  -12.89511
       H    17.12103    9.42556  -10.13551
       O    18.01547    9.68921  -10.33319
      H1    17.87352   10.38473  -10.94983
       H    17.53231   10.17782  -13.31836
       O    17.37009    9.47222  -14.00998
      H1    16.89933    9.91211  -14.69670

