27
frame 5 | Written by MDAnalysis XYZWriter (release 2.4.3)
       H    -7.59189   -2.02046   19.29483
       O    -7.76183   -1.74788   18.39466
      H1    -7.02375   -1.18909   18.11707
       H    -5.08481   -1.69688   13.07042
       O    -6.03322   -1.46646   13.23693
      H1    -6.48234   -2.32133   13.21482
       H    -4.95522    1.66789   16.83511
       O    -4.19657    1.09246   16.75385
      H1    -3.65523    1.30891   17.53668
       H    -2.00795   -3.83903   18.53045
       O    -1.66858   -4.10843   17.62843
      H1    -1.04366   -3.42519   17.41314
       H    -8.52615   -2.45384   17.09395
       O    -9.16618   -2.84114   16.41458
      H1    -9.14724   -2.17978   15.73272
       H    -6.03096   -1.38577   15.38762
       O    -5.79879   -1.11710   16.28254
      H1    -5.40619   -0.20178   16.31866
       H    -4.47745   -5.89696   18.93959
       O    -4.92210   -5.58667   18.18518
      H1    -4.84484   -4.61721   18.08855
       H    -3.58635   -2.86209   17.39191
       O    -4.43362   -2.82298   17.83766
      H1    -4.95284   -2.12086   17.37779
       H    -5.64222   -6.70888   15.35386
       O    -4.66981   -6.56427   15.58672
      H1    -4.73182   -6.27157   16.49121

