27
frame 6 | Written by MDAnalysis XYZWriter (release 2.4.3)
       H     3.99605    9.85035  -11.59336
       O     4.84458    9.76925  -11.14988
      H1     5.39755   10.38070  -11.70034
       H     3.80600    8.77111  -16.85475
       O     4.02290    8.06013  -17.53819
      H1     4.76611    8.47097  -18.02846
       H     1.87655    8.91807  -15.62271
       O     2.72392    9.35507  -15.59235
      H1     3.00780    9.20667  -14.66706
       H     3.82471   12.44741  -16.71392
       O     3.65772   12.11837  -15.83648
      H1     3.19518   11.25670  -15.96162
       H     7.51440   11.75652  -12.05530
       O     6.58283   11.56020  -12.16488
      H1     6.14150   12.32384  -11.73885
       H     4.86927   11.17439  -14.96710
       O     5.08862   10.34358  -14.39739
      H1     5.88711   10.56481  -13.98341
       H     4.96522    7.49578  -16.07849
       O     5.57647    7.59006  -15.33218
      H1     5.53907    8.50439  -15.10157
       H     8.43079   11.46990  -14.43510
       O     7.90724   11.31350  -15.22748
      H1     7.96978   10.43183  -15.55731
       H     4.46611    7.39143  -14.11481
       O     3.79027    7.04128  -13.52094
      H1     3.62894    7.76357  -12.94264

