27
frame 6 | Written by MDAnalysis XYZWriter (release 2.4.3)
       H    -9.55281   16.40567    7.49384
       O    -9.60028   17.39475    7.54050
      H1    -9.41739   17.52269    6.61965
       H   -11.07578   16.21044   12.06795
       O   -10.78198   15.44376   11.51448
      H1   -11.52243   14.80068   11.67708
       H    -6.93767   18.82603    7.57634
       O    -6.73761   17.91903    7.97315
      H1    -7.72021   17.61078    8.08101
       H   -11.16995   15.53977    9.29487
       O   -11.71416   16.00503    8.64995
      H1   -11.02059   16.63404    8.22183
       H   -12.66415   18.70077    9.65129
       O   -11.82075   19.15912    9.45058
      H1   -11.08537   18.66894    9.90228
       H    -9.63118   18.76338   12.18616
       O    -9.65816   18.89345   13.19052
      H1   -10.53303   19.26393   13.52337
       H    -8.92677   17.19925   10.55839
       O    -9.47558   18.01809   10.44521
      H1    -9.06108   18.55833    9.77949
       H    -4.15475   19.12292    9.37518
       O    -4.75312   18.47959    9.81319
      H1    -5.49939   18.29569    9.17273
       H    -7.90988   15.32542   11.44197
       O    -8.14428   15.41800   10.51401
      H1    -9.07429   15.23937   10.57633

