27
frame 5 | Written by MDAnalysis XYZWriter (release 2.4.3)
       H    -1.87399   12.85316    3.16990
       O    -1.99396   13.74134    2.83491
      H1    -2.81491   13.75671    2.33586
       H    -3.23528    8.64700    0.43779
       O    -4.17639    8.83736    0.62329
      H1    -4.54563    8.90677   -0.28975
       H    -4.07641   10.23845    1.81902
       O    -3.81085   10.96101    2.38625
      H1    -4.63228   11.41535    2.63278
       H    -2.04846   10.84104   -0.84526
       O    -1.72273   10.22262   -1.55755
      H1    -2.48531   10.01555   -1.99993
       H    -5.28591   14.16652    1.93446
       O    -4.58557   14.59953    1.43572
      H1    -4.79562   15.54270    1.28538
       H    -5.65652   12.09060   -1.17428
       O    -5.94040   11.16027   -0.88110
      H1    -5.48637   11.04720   -0.06639
       H    -1.59343    8.98378    3.57371
       O    -1.55370    9.45754    2.69490
      H1    -2.33868   10.02218    2.71534
       H    -3.16482   11.95457    0.91492
       O    -2.89611   12.25570    0.04263
      H1    -2.46750   13.07229    0.26571
       H    -4.84481   13.69783   -2.36301
       O    -5.09405   13.96496   -1.45736
      H1    -4.43833   14.12983   -0.75452

