27
frame 7 | Written by MDAnalysis XYZWriter (release 2.4.3)
       H   -11.27210   10.03551    3.59003
       O   -12.20783   10.38415    3.64574
      H1   -12.31151   10.99331    2.83990
       H    -8.37743   12.28118    3.34731
       O    -8.02763   11.46788    3.64175
      H1    -8.04300   10.97257    2.81550
       H   -10.11431   15.51832    3.69382
       O   -10.70049   16.20760    3.99020
      H1   -11.38924   15.78079    4.52545
       H    -9.85163   13.18812    3.72178
       O    -9.38315   13.85341    3.22324
      H1    -9.96082   14.00895    2.50924
       H   -11.40614   11.76768    4.42927
       O   -11.04591   12.50844    4.98538
      H1   -10.42067   12.11054    5.65542
       H    -9.12997    9.81107    4.08607
       O    -9.80247    9.14151    3.89443
      H1    -9.28047    8.47635    3.42143
       H   -14.33699   13.32424    5.16037
       O   -14.50399   12.97143    6.01656
      H1   -14.69438   12.04092    5.97127
       H   -12.52549   14.22140    5.95143
       O   -12.51632   15.22825    5.87673
      H1   -13.28116   15.64815    6.22756
       H    -9.80967   11.85106    7.92911
       O    -9.41431   11.52846    7.08524
      H1    -9.61986   10.61146    7.03709

