27
frame 7 | Written by MDAnalysis XYZWriter (release 2.4.3)
       H     5.84987    3.43377   10.98497
       O     4.98086    3.01563   10.77627
      H1     4.45306    3.19875   11.55677
       H     2.14093    3.55865    9.20895
       O     2.66623    4.17729    9.75626
      H1     3.51298    3.64946    9.94077
       H     3.05563    3.87498   13.51640
       O     3.76178    3.18663   13.52098
      H1     3.84252    2.98980   14.43777
       H     6.60907    1.74220   13.54938
       O     6.65764    2.58212   14.01819
      H1     5.94594    3.11356   13.57149
       H     6.60912    0.40009    9.64038
       O     5.74847    0.61837    9.35700
      H1     5.41215    1.37829    9.85928
       H     1.49175    5.19995   12.23267
       O     2.08757    5.48062   12.86522
      H1     1.62692    5.91005   13.56558
       H     3.57189    5.82305    9.84899
       O     4.15936    6.56038    9.70957
      H1     4.22903    7.04032   10.53835
       H     2.31146    1.36067   12.43359
       O     2.40979    0.46805   12.74336
      H1     2.02071   -0.05634   12.04076
       H     6.99733    5.10629   10.07654
       O     7.44179    4.43302   10.62819
      H1     7.63331    4.91847   11.43758

