27
frame 7 | Written by MDAnalysis XYZWriter (release 2.4.3)
       H    -8.51068    8.30497    7.24000
       O    -7.72262    7.76110    7.18676
      H1    -7.94743    7.07049    7.77341
       H    -1.63605    4.54132    9.50885
       O    -1.94223    4.31088    8.67589
      H1    -2.87402    4.04342    8.76236
       H    -5.40103    7.77374   10.63198
       O    -5.25395    7.31741    9.74835
      H1    -5.05083    8.06070    9.13527
       H    -7.77317    5.20650    9.27840
       O    -7.91375    4.28300    8.95590
      H1    -7.14676    4.28038    8.40900
       H    -5.10466    6.89516    5.52527
       O    -6.00984    6.81386    5.14785
      H1    -6.57621    7.13941    5.88251
       H    -5.25633    5.91785    8.63780
       O    -5.48217    5.36672    7.90714
      H1    -4.99734    4.54684    7.92506
       H    -4.89741    9.01797    6.93955
       O    -5.57414    9.14955    7.71121
      H1    -6.31007    8.52213    7.50731
       H    -8.26684    6.67850   10.72977
       O    -7.83628    6.86268    9.84362
      H1    -6.90582    6.98351    9.87718
       H    -4.25647    3.02944   10.65709
       O    -4.34640    3.27287    9.69574
      H1    -5.01138    2.60535    9.45648

