27
frame 6 | Written by MDAnalysis XYZWriter (release 2.4.3)
       H   -13.78847   14.97888   17.32045
       O   -14.42082   15.14018   16.59536
      H1   -14.38969   16.14204   16.50545
       H   -19.54022   17.16028   16.99103
       O   -18.71810   17.33343   16.47725
      H1   -18.92809   16.95002   15.61482
       H   -12.20831   18.63717   16.91139
       O   -12.62380   17.75317   16.74551
      H1   -12.03377   17.04112   16.86854
       H   -15.62144   18.33985   16.53634
       O   -15.28507   17.82367   15.78838
      H1   -14.36209   17.87933   15.91811
       H   -12.84973   16.43579   13.38235
       O   -12.79127   17.31735   12.99325
      H1   -12.89899   18.00599   13.63989
       H   -13.60843   17.30523   18.83271
       O   -13.81683   16.69145   19.49346
      H1   -14.40071   17.02074   20.17180
       H   -16.46441   19.60245   19.15911
       O   -15.71727   19.11803   18.84299
      H1   -14.94849   19.73098   18.87024
       H   -16.18631   15.26502   16.86660
       O   -17.11379   15.35509   17.19030
      H1   -17.42893   16.15180   16.69940
       H   -15.85849   18.76654   14.29763
       O   -16.59459   19.16657   13.76618
      H1   -16.05126   19.56089   13.06404

