27
frame 0 | Written by MDAnalysis XYZWriter (release 2.4.3)
       H   -15.62524    7.98817   11.31917
       O   -15.55898    7.56512   12.15701
      H1   -16.34479    7.13366   12.33320
       H   -13.51750    5.75139   13.94538
       O   -13.08107    5.73293   13.04106
      H1   -12.11006    5.61495   13.26169
       H   -17.68793    4.98537   15.20450
       O   -16.90388    4.59271   14.74031
      H1   -16.94725    3.74078   15.14838
       H   -15.17255    2.51265   16.53995
       O   -14.39786    3.05678   16.82475
      H1   -13.86045    3.20759   16.07651
       H   -18.91267    2.58080   13.17800
       O   -18.37862    3.22041   12.67449
      H1   -17.86132    3.67537   13.36530
       H   -15.26793    4.84289   17.76464
       O   -15.42617    5.31725   18.51204
      H1   -14.79441    4.96566   19.13401
       H   -14.15014    6.85961   15.51560
       O   -14.13827    5.89672   15.49205
      H1   -15.01208    5.65234   15.80839
       H   -18.24728    1.66295   16.43392
       O   -17.74897    1.91429   15.57722
      H1   -17.05469    1.19570   15.45428
       H   -19.58372    3.88353   18.85781
       O   -18.69703    3.76642   18.46313
      H1   -18.83954    4.18222   17.58580

