27
frame 7 | Written by MDAnalysis XYZWriter (release 2.4.3)
       H    16.34014    6.57450   10.87842
       O    15.52379    7.01795   10.61078
      H1    14.89771    6.44557   11.04962
       H    17.61523   11.64622   12.60702
       O    17.86973   11.70942   13.50102
      H1    18.64591   11.18827   13.54618
       H    13.11420   11.88921    9.06052
       O    12.14950   11.93618    9.28444
      H1    11.94169   12.82004    9.66596
       H    15.32674   10.32534   10.26011
       O    15.29749    9.95076   11.20095
      H1    15.18668    9.02614   11.20636
       H    13.95037   10.14452   12.36478
       O    13.10101   10.42793   12.81598
      H1    12.35900   10.09360   12.25494
       H    17.55924   12.02846    9.54618
       O    17.18445   12.73448    9.01980
      H1    17.34872   12.39029    8.10853
       H    15.63861   11.86915    8.84664
       O    14.99862   11.19645    8.78551
      H1    15.01106   11.03070    7.87483
       H    18.78812   10.40404   10.42469
       O    18.06244   10.95573   10.84093
      H1    17.38651   10.31235   11.03563
       H    12.43837   13.54974   11.94270
       O    13.15951   13.16279   12.53336
      H1    13.16190   12.18951   12.41969

