27
frame 6 | Written by MDAnalysis XYZWriter (release 2.4.3)
       H     2.42661    4.20333  -10.61986
       O     2.90517    3.44704  -10.20740
      H1     3.35659    3.76759   -9.47027
       H    -0.03443    3.35376   -7.69266
       O    -0.22672    3.90865   -8.46881
      H1    -0.10154    3.20599   -9.18891
       H     3.79944    5.76317   -5.32755
       O     3.36344    6.59778   -5.35716
      H1     3.15162    6.70134   -6.29641
       H     1.22344    9.02825  -10.05639
       O     0.84623    8.15448  -10.21060
      H1     0.75478    7.85511   -9.27938
       H     5.35239    4.08572   -7.43985
       O     4.47729    3.88216   -7.75836
      H1     4.06247    3.12362   -7.33344
       H    -0.06225    5.67846   -7.90400
       O     0.17267    6.58446   -8.02804
      H1     0.17789    7.01694   -7.17962
       H     0.98567    6.15006  -11.21399
       O     1.67054    5.61287  -11.56781
      H1     1.60731    5.60233  -12.52577
       H     4.99355    9.17514   -9.44305
       O     4.69911    8.91044   -8.55330
      H1     4.00489    8.24283   -8.74657
       H     3.59620    5.66683   -8.22303
       O     3.04877    6.48872   -8.20013
      H1     2.12573    6.27891   -8.37022

