27
frame 6 | Written by MDAnalysis XYZWriter (release 2.4.3)
       H    18.61384    4.25291   -5.69420
       O    19.08574    4.35949   -4.84574
      H1    19.67763    3.58327   -4.75089
       H    16.65028    7.01983   -5.49399
       O    16.81152    6.77169   -4.56553
      H1    16.67998    5.80035   -4.51360
       H    19.51409    2.96734   -8.23073
       O    18.69334    3.29313   -8.66016
      H1    18.38693    2.54202   -9.14619
       H    17.03563    5.31656   -2.34166
       O    17.52913    5.96752   -1.85167
      H1    17.55389    6.80018   -2.39766
       H    15.98761    3.80930   -4.29642
       O    16.58936    4.07160   -3.59370
      H1    17.39754    3.99045   -4.04970
       H    16.94130    6.65007   -7.35000
       O    16.77544    7.60162   -7.29435
      H1    17.39333    7.98458   -7.93913
       H    16.51533    0.61712   -5.44283
       O    16.86288    0.92129   -4.62459
      H1    16.23161    0.69407   -3.93699
       H    17.82328    9.24882   -3.14141
       O    18.28624    8.37392   -2.98737
      H1    18.08902    7.83201   -3.71780
       H    15.99108    4.14276   -6.84158
       O    16.81914    4.64810   -7.04760
      H1    17.29687    4.24556   -7.77036

