27
frame 6 | Written by MDAnalysis XYZWriter (release 2.4.3)
       H     9.46890    2.08597   -7.09091
       O     8.64036    1.61543   -7.17106
      H1     8.24768    1.86133   -8.09151
       H     7.13118   -2.58829   -9.10843
       O     6.71636   -2.93678   -9.92470
      H1     6.66350   -2.12697  -10.50166
       H     6.78303   -1.86873   -4.86712
       O     7.66799   -2.11157   -5.29556
      H1     8.40833   -1.77921   -4.72713
       H     9.77543   -1.21936   -9.06108
       O     9.93776   -1.25214  -10.01655
      H1     9.06651   -0.97768  -10.35942
       H     8.32284   -0.22847   -7.64555
       O     8.28863   -1.19760   -7.77854
      H1     7.96702   -1.55086   -6.92102
       H     4.59379   -4.02426   -6.67366
       O     4.92499   -3.13577   -6.85330
      H1     5.33032   -2.87737   -6.00793
       H    10.30775   -0.62068   -3.66039
       O     9.37329   -0.62885   -3.40577
      H1     9.37397   -1.00716   -2.54459
       H     7.88239    2.07177   -5.24337
       O     7.81262    2.51448   -4.39449
      H1     8.40210    3.22318   -4.39464
       H     7.42622   -5.14879   -6.52152
       O     7.65196   -5.24610   -5.61758
      H1     8.05563   -4.40356   -5.38809

