27
frame 7 | Written by MDAnalysis XYZWriter (release 2.4.3)
       H     3.62646   -5.37751   -6.33359
       O     3.23838   -4.47882   -6.41579
      H1     3.22577   -4.45430   -7.37656
       H     5.21026   -2.28738   -2.43355
       O     4.66374   -2.76986   -3.01929
      H1     4.87942   -3.73932   -2.96648
       H     1.21038   -7.41711   -3.48364
       O     1.21970   -6.51807   -3.83080
      H1     1.94400   -6.57743   -4.41400
       H     4.33402   -8.08960   -5.56998
       O     3.56817   -7.44567   -5.58015
      H1     2.96458   -7.86358   -6.24378
       H     3.96178   -6.08631   -3.25273
       O     4.79570   -5.57968   -3.29580
      H1     5.29666   -5.89036   -4.05599
       H     3.93340   -8.38090   -0.52457
       O     3.92535   -7.45413   -0.35443
      H1     3.38942   -6.89368   -0.94080
       H     4.09144   -4.07555   -0.48664
       O     4.79697   -4.19221    0.18216
      H1     5.12702   -5.03351    0.17344
       H     6.39300   -7.47346   -3.25833
       O     6.41299   -8.47189   -3.27799
      H1     5.70129   -8.76295   -2.73032
       H     6.53939   -5.59970   -6.10943
       O     6.79803   -5.73356   -5.22331
      H1     7.30236   -4.90071   -5.10336

