27
frame 6 | Written by MDAnalysis XYZWriter (release 2.4.3)
       H    18.99377  -10.68734   13.49868
       O    19.81617  -11.28956   13.64618
      H1    19.45459  -12.14957   13.86559
       H    16.69994  -11.12217   14.08440
       O    16.43876  -11.87380   14.68538
      H1    15.54745  -11.62680   15.07503
       H    18.82693  -11.69172   16.69183
       O    17.99737  -11.20563   16.89473
      H1    17.53437  -11.46611   16.08372
       H    15.56213   -9.26718   16.33796
       O    15.56852   -8.35107   16.17820
      H1    14.81566   -8.13067   16.73138
       H    20.31833   -8.99746   16.47553
       O    19.57589   -8.70050   17.09044
      H1    18.97612   -9.48427   17.07113
       H    17.70833   -8.89784   13.50684
       O    17.42076   -9.72589   13.04207
      H1    16.80615   -9.62885   12.31557
       H    16.35748   -6.69228   16.47656
       O    16.67460   -5.77454   16.54807
      H1    17.12166   -5.60445   15.71480
       H    18.12574   -6.64558   13.70739
       O    18.49187   -7.43468   14.18386
      H1    19.44164   -7.19528   14.20227
       H    18.73505   -7.39342   18.09496
       O    18.20595   -6.78076   18.66448
      H1    17.43993   -6.47461   18.10874

