27
frame 8 | Written by MDAnalysis XYZWriter (release 2.4.3)
       H    17.64904   11.04066   12.72844
       O    17.51580   11.08877   13.68696
      H1    18.11819   10.42319   14.12536
       H    19.15384   13.43460   14.49098
       O    18.27338   13.50686   14.78911
      H1    17.81917   12.92100   14.11311
       H    18.90534    8.55970   15.10420
       O    19.21486    9.44741   14.74691
      H1    19.61873    9.93122   15.48434
       H    17.28058   11.44199   19.12314
       O    16.54389   10.87541   18.86930
      H1    16.41834   10.91469   17.91208
       H    18.27950   10.96040   10.92501
       O    17.48118   11.39384   11.13741
      H1    16.79601   10.71598   10.98691
       H    18.16133    6.59220   15.60397
       O    19.06184    6.85594   15.59892
      H1    19.26109    7.20819   16.50336
       H    16.45594    5.56660   14.64157
       O    16.41039    6.44676   15.07586
      H1    16.31432    7.15058   14.41261
       H    16.38735   11.98209   15.68046
       O    15.62897   12.06063   16.25858
      H1    15.61504   12.97756   16.58240
       H    15.53672    8.53728   13.14093
       O    16.50374    8.48901   13.26588
      H1    16.69452    9.41715   13.31781

