27
frame 7 | Written by MDAnalysis XYZWriter (release 2.4.3)
       H    -6.05513    5.62417  -18.06354
       O    -6.23218    6.19025  -17.28781
      H1    -5.35726    6.23634  -16.82313
       H    -6.56917    0.75653  -15.66022
       O    -6.62197    1.45307  -14.97150
      H1    -6.95858    2.18420  -15.48899
       H   -10.16842    5.22104  -18.88920
       O   -10.79819    5.15212  -18.12470
      H1   -10.62186    5.99301  -17.71561
       H   -11.07276    5.58999  -12.82522
       O   -10.43508    6.17140  -13.25791
      H1    -9.62257    5.68487  -13.34268
       H   -11.02344    3.21820  -12.07678
       O   -10.13878    2.83257  -12.32705
      H1    -9.66947    3.54560  -12.75304
       H   -11.03623    2.87917  -16.89440
       O   -10.23432    2.42300  -16.69201
      H1   -10.47074    1.71860  -16.06915
       H    -9.70574    0.02664  -19.35365
       O    -9.29746    0.84899  -19.04980
      H1    -9.73467    1.11481  -18.21111
       H    -7.52316    4.74840  -16.57140
       O    -7.54781    3.85787  -16.15909
      H1    -8.42101    3.46223  -16.29324
       H    -7.71861    4.87957  -14.62546
       O    -7.94677    5.07135  -13.71368
      H1    -7.20448    5.69239  -13.41495

