27
frame 8 | Written by MDAnalysis XYZWriter (release 2.4.3)
       H   -10.81718    6.02977   13.98159
       O   -11.12446    5.72311   14.92402
      H1   -11.81286    6.33228   15.21377
       H   -12.48001    1.62872   17.94112
       O   -11.67384    1.93565   17.51056
      H1   -11.00243    1.95235   18.16984
       H   -14.09347    2.09486   19.38582
       O   -14.06928    1.21416   18.96691
      H1   -13.78058    0.66976   19.73456
       H   -13.98987    6.76945   17.03173
       O   -13.43069    7.12187   17.76583
      H1   -12.76929    6.42616   17.86684
       H    -9.19222    7.66153   17.06236
       O    -9.00879    6.99646   16.35710
      H1    -9.89480    6.98938   15.92231
       H   -14.94529    4.13261   19.24701
       O   -14.08430    3.76337   19.68182
      H1   -13.42238    4.27523   19.16802
       H    -8.94386    5.06205   15.27005
       O    -8.20476    4.82938   14.69851
      H1    -7.59630    5.55795   14.66621
       H   -11.89813    3.87254   17.42434
       O   -12.08642    4.69078   18.00211
      H1   -11.33882    4.80448   18.62919
       H    -6.57091    4.84595   17.78399
       O    -7.32960    5.38031   17.99118
      H1    -7.64199    5.71990   17.14939

