27
frame 8 | Written by MDAnalysis XYZWriter (release 2.4.3)
       H    12.40196   12.75464  -16.67594
       O    12.92154   13.56183  -16.68325
      H1    13.40277   13.60292  -15.88948
       H    16.93411   14.38694  -16.33311
       O    16.78030   14.48098  -15.32035
      H1    16.26617   13.75097  -15.02929
       H    16.74352   10.61425  -17.18226
       O    16.54248   11.52898  -17.22185
      H1    17.32217   11.82487  -17.78517
       H    15.47947   11.66865  -15.52458
       O    15.18705   12.33283  -14.89726
      H1    15.59067   11.95961  -14.12760
       H    13.45987   15.37648  -17.87609
       O    13.21430   16.30875  -17.74503
      H1    13.55990   16.85306  -18.47929
       H    13.84306   12.95290  -18.04648
       O    14.16243   12.66723  -18.91190
      H1    14.98476   12.19192  -18.70304
       H    18.45669   13.24943  -20.34923
       O    18.64967   12.63894  -19.54800
      H1    19.12289   13.26826  -18.91905
       H    15.95632   14.84535  -18.24996
       O    16.83255   14.74946  -17.90000
      H1    17.42455   14.89792  -18.63880
       H    13.28287   11.16974  -19.58579
       O    12.62235   10.44535  -19.55692
      H1    12.98416    9.69810  -20.05176

