27
frame 8 | Written by MDAnalysis XYZWriter (release 2.4.3)
       H   -13.15584   -2.12731   15.36579
       O   -12.87542   -1.43852   14.68288
      H1   -12.34238   -1.98819   14.10287
       H   -10.91850   -4.34860   17.77079
       O   -11.05639   -5.01400   18.52015
      H1   -10.43083   -5.71034   18.29189
       H    -7.98164   -2.00293   18.49100
       O    -8.26977   -2.09887   17.60039
      H1    -7.38711   -2.19377   17.18899
       H   -11.90615   -3.98907   13.25331
       O   -11.21685   -3.44072   13.66057
      H1   -10.79980   -3.01082   12.89983
       H   -12.96298   -0.83735   16.91087
       O   -12.64878   -1.56367   17.53997
      H1   -11.83792   -1.94153   17.21796
       H    -9.84938   -2.58587   16.84867
       O   -10.67781   -2.99348   16.57440
      H1   -10.69255   -2.92906   15.64518
       H    -8.09062   -4.06504   16.98144
       O    -8.07443   -4.98574   17.05631
      H1    -7.91754   -5.27649   16.11020
       H    -8.17602    0.15494   13.31078
       O    -8.20720   -0.13804   14.18973
      H1    -9.11545   -0.14288   14.53369
       H   -10.91115    0.78114   15.95008
       O   -10.70951    0.33244   15.13264
      H1   -11.45619   -0.29337   15.10954

