27
frame 8 | Written by MDAnalysis XYZWriter (release 2.4.3)
       H    17.29108   16.43609   -6.85353
       O    17.73471   17.06428   -6.29346
      H1    17.03912   17.33766   -5.64197
       H    19.46833   16.86988  -11.55941
       O    19.27106   17.77299  -11.20970
      H1    19.43893   17.76714  -10.27996
       H    18.84414   17.57997   -3.26450
       O    19.54550   16.93670   -3.43714
      H1    19.62501   16.45964   -2.58426
       H    16.62316   16.36414   -8.81493
       O    16.96478   15.57727   -8.36906
      H1    17.76515   15.33481   -8.88255
       H    19.43725   20.00150   -6.85345
       O    18.64214   19.63919   -6.39210
      H1    18.43357   18.85142   -6.98993
       H    14.74572   17.68058   -9.48724
       O    15.71915   17.93320   -9.45163
      H1    16.03624   18.05451  -10.35497
       H    19.48396   15.12786  -10.53598
       O    19.27806   15.14014   -9.59291
      H1    19.69588   15.93787   -9.22912
       H    16.74426   18.79623   -3.60924
       O    17.69402   18.96447   -3.39499
      H1    17.94547   19.52868   -4.09242
       H    17.09388   19.92691   -7.15742
       O    16.17114   19.91557   -7.45654
      H1    15.96574   19.31047   -8.19299

