27
frame 8 | Written by MDAnalysis XYZWriter (release 2.4.3)
       H    17.37807  -18.87338  -12.48921
       O    17.17714  -18.06073  -12.95875
      H1    16.21348  -17.98629  -13.11908
       H    14.60521  -19.11617  -19.65127
       O    15.42257  -19.46946  -19.27676
      H1    16.19337  -18.95504  -19.57605
       H    12.58038  -16.68505  -15.64906
       O    12.56834  -17.20806  -16.42697
      H1    13.21147  -17.89845  -16.32833
       H    17.37319  -16.15489  -14.08954
       O    16.96584  -15.29517  -13.95479
      H1    17.66105  -14.65112  -13.69611
       H    15.57449  -19.58574  -15.85186
       O    14.85977  -19.15882  -16.26767
      H1    14.98205  -19.37463  -17.18105
       H    14.53547  -18.67496  -11.33270
       O    14.67520  -17.74508  -11.54625
      H1    14.13499  -17.63185  -12.33111
       H    18.11725  -16.36673  -17.93162
       O    18.38343  -17.24241  -17.64865
      H1    19.26747  -17.11489  -17.22825
       H    11.89280  -16.43338  -13.28099
       O    12.82102  -16.28320  -13.53113
      H1    13.00282  -15.31531  -13.55474
       H    14.08259  -15.00711  -16.96378
       O    13.70343  -15.22101  -17.82658
      H1    13.14781  -15.98073  -17.51790

