27
frame 8 | Written by MDAnalysis XYZWriter (release 2.4.3)
       H    -4.01064  -17.97387   -3.21816
       O    -3.10858  -18.18104   -3.53569
      H1    -2.86344  -17.55585   -4.21098
       H     5.20593  -19.39402   -1.26174
       O     4.32034  -19.03769   -1.35988
      H1     3.86554  -19.71966   -1.83018
       H     0.08547  -19.79964   -3.52857
       O     0.45034  -19.60063   -2.62637
      H1    -0.24638  -19.10459   -2.14344
       H    -2.99870  -15.66512   -5.66893
       O    -2.31508  -16.14374   -5.14238
      H1    -1.61270  -16.26364   -5.78083
       H    -2.24003  -18.37473   -2.10621
       O    -1.60428  -18.15521   -1.36350
      H1    -1.64149  -18.84876   -0.68396
       H     0.17616  -16.68309   -2.90522
       O     0.56899  -16.45926   -2.09405
      H1     0.08172  -17.20339   -1.51602
       H     0.47853  -17.85573    1.17738
       O     0.87922  -18.18552    0.33735
      H1     1.70205  -18.70902    0.62734
       H     0.56229  -16.21591   -6.65035
       O    -0.24169  -16.75468   -6.87892
      H1    -0.25283  -17.01439   -7.79961
       H     2.36643  -17.93988   -6.74652
       O     3.16633  -18.30836   -7.10215
      H1     3.91573  -18.08506   -6.51648

