27
frame 8 | Written by MDAnalysis XYZWriter (release 2.4.3)
       H     3.91215  -14.28745   -3.03906
       O     3.54310  -13.98518   -3.92466
      H1     2.98518  -14.70838   -4.29939
       H     6.01942  -16.60936   -6.00140
       O     5.44233  -17.31452   -5.67106
      H1     5.33042  -17.13779   -4.69679
       H     1.27708  -14.83206   -1.87247
       O     1.79645  -14.12077   -1.48479
      H1     1.80997  -13.32921   -2.05844
       H     5.06089  -13.89042   -8.70070
       O     5.41379  -13.73635   -7.78783
      H1     4.67028  -13.70753   -7.16806
       H     4.17017  -11.37597   -5.65747
       O     3.42793  -11.97520   -5.78779
      H1     3.53481  -12.66381   -5.13927
       H     6.47131  -15.75632   -3.26137
       O     5.72161  -16.29228   -3.09711
      H1     5.17265  -15.81804   -2.46557
       H     3.40430  -14.37039   -1.29688
       O     4.30827  -14.72538   -1.42896
      H1     4.97511  -14.38203   -0.76851
       H     1.79725  -14.89739   -7.24914
       O     1.62655  -14.70700   -6.31172
      H1     1.04643  -13.93320   -6.33100
       H     1.83015  -11.30571   -2.65503
       O     2.64561  -11.70443   -2.36487
      H1     2.88602  -12.25812   -3.13789

