27
frame 7 | Written by MDAnalysis XYZWriter (release 2.4.3)
       H    -7.73019   -9.68431    2.95431
       O    -8.23913   -9.88989    2.15674
      H1    -7.68371   -9.34529    1.48704
       H   -10.13617   -9.53391    2.81705
       O   -11.01376   -9.51049    3.20628
      H1   -11.45477  -10.32008    2.84082
       H   -12.67571  -11.82948    4.23014
       O   -12.71790  -12.00405    3.27970
      H1   -11.88324  -12.54451    3.13351
       H   -12.43923  -11.82221    6.67067
       O   -12.61600  -11.11382    6.06453
      H1   -11.80083  -10.58247    5.99544
       H    -9.71150  -10.33817    5.81875
       O   -10.37870   -9.65247    5.84759
      H1   -10.54052   -9.45920    4.90696
       H   -12.07816   -5.93241    5.12330
       O   -11.92488   -6.88431    5.08827
      H1   -12.52049   -7.33103    4.54235
       H   -14.88321   -9.81011    3.02009
       O   -15.35604  -10.46030    2.46240
      H1   -14.80726  -11.23592    2.54623
       H    -8.38668  -12.12400    2.30129
       O    -8.53430  -12.91458    1.74410
      H1    -8.80613  -12.58167    0.87862
       H   -12.74843   -8.58764    2.94548
       O   -13.57635   -8.06656    3.04117
      H1   -13.69526   -7.57898    2.21710

