27
frame 8 | Written by MDAnalysis XYZWriter (release 2.4.3)
       H    14.60521  -19.11617  -19.65127
       O    15.42257  -19.46946  -19.27676
      H1    16.19337  -18.95504  -19.57605
       H     9.77711  -20.29427  -15.42742
       O    10.11846  -19.76783  -14.76001
      H1    10.16587  -18.85953  -15.23964
       H    12.58038  -16.68505  -15.64906
       O    12.56834  -17.20806  -16.42697
      H1    13.21147  -17.89845  -16.32833
       H    15.57449  -19.58574  -15.85186
       O    14.85977  -19.15882  -16.26767
      H1    14.98205  -19.37463  -17.18105
       H    12.02495  -17.04831  -19.45110
       O    11.20108  -17.24782  -19.00668
      H1    10.52187  -16.67558  -19.33163
       H     7.44527  -18.75516  -16.10106
       O     7.07642  -19.56430  -15.81231
      H1     6.84796  -20.04547  -16.61465
       H    10.62310  -18.84134  -18.61470
       O    10.44629  -19.78911  -18.51597
      H1    11.14715  -20.13731  -19.07484
       H    10.79085  -17.16879  -16.01915
       O     9.87382  -17.26502  -15.76494
      H1     9.40884  -17.09471  -16.57043
       H     8.20063  -18.15993  -18.27284
       O     8.07680  -17.38298  -17.76382
      H1     7.33400  -16.92689  -18.15973

