27
frame 8 | Written by MDAnalysis XYZWriter (release 2.4.3)
       H     5.52262  -15.43622  -18.74973
       O     6.07017  -15.88946  -19.36631
      H1     6.35406  -15.14234  -19.95787
       H     9.51071  -14.57405  -18.76148
       O     9.46470  -14.00974  -17.98667
      H1     8.75061  -13.38573  -18.13134
       H    11.03456  -13.46966  -17.69070
       O    11.84977  -13.09759  -17.41898
      H1    12.57475  -13.64578  -17.69649
       H    12.02495  -17.04831  -19.45110
       O    11.20108  -17.24782  -19.00668
      H1    10.52187  -16.67558  -19.33163
       H    10.79085  -17.16879  -16.01915
       O     9.87382  -17.26502  -15.76494
      H1     9.40884  -17.09471  -16.57043
       H     7.51634  -10.58293  -18.04958
       O     7.64508  -11.44020  -18.53270
      H1     6.82957  -11.98835  -18.38306
       H    11.05801   -9.96418  -16.90803
       O    11.37118  -10.40001  -17.70076
      H1    11.28228  -11.42100  -17.51114
       H     8.20063  -18.15993  -18.27284
       O     8.07680  -17.38298  -17.76382
      H1     7.33400  -16.92689  -18.15973
       H     8.52586  -15.45075  -15.55460
       O     7.62672  -15.22473  -15.43127
      H1     7.31661  -15.85241  -14.76583

