27
frame 7 | Written by MDAnalysis XYZWriter (release 2.4.3)
       H    -5.72159  -16.54798   14.40324
       O    -5.79428  -16.18126   13.53391
      H1    -4.94023  -16.33257   13.06159
       H    -6.56726  -19.27571   14.95117
       O    -7.37904  -18.71998   15.02553
      H1    -8.10903  -19.33622   15.08775
       H    -7.92545  -15.66677   16.51598
       O    -8.50075  -16.36720   16.35130
      H1    -8.02264  -17.09695   15.88189
       H    -5.10054  -19.37402   16.65683
       O    -5.50163  -19.58187   17.53742
      H1    -4.77874  -19.77697   18.14826
       H    -4.02325  -18.82348   14.77692
       O    -4.80214  -19.35793   14.85633
      H1    -4.48567  -20.26282   14.64147
       H   -10.08607  -14.89903   14.06094
       O   -10.32672  -15.64247   14.66785
      H1    -9.51566  -15.87650   15.22818
       H    -6.74118  -17.26478   12.24024
       O    -6.97438  -17.80044   11.42871
      H1    -7.26277  -18.59642   11.83845
       H    -6.87664  -18.47953   18.23087
       O    -7.21429  -17.72867   18.75108
      H1    -8.05113  -17.48481   18.32298
       H   -12.30574  -19.72528   14.71433
       O   -12.23423  -19.69276   13.71218
      H1   -12.08935  -18.74259   13.54669

