27
frame 0 | Written by MDAnalysis XYZWriter (release 2.4.3)
       H     2.79738  -11.57420   -5.52366
       O     1.88265  -11.41893   -5.73998
      H1     1.30007  -11.54141   -4.96879
       H     4.77700  -13.83214   -4.33661
       O     4.11594  -13.55291   -5.05938
      H1     3.32443  -13.74697   -4.58388
       H     4.71188  -13.71760   -8.69506
       O     5.06034  -13.10630   -9.41982
      H1     5.31789  -12.23500   -9.06168
       H     5.15087  -10.43541   -5.69121
       O     4.60413  -11.16414   -6.16073
      H1     4.64304  -12.04039   -5.61969
       H     3.40652  -10.77487   -7.89914
       O     2.68854  -10.49062   -8.50328
      H1     1.82379  -10.62060   -8.06360
       H     4.04804   -7.86149   -5.81684
       O     3.85693   -7.13520   -5.26704
      H1     2.88285   -7.17310   -5.16658
       H     5.81415  -11.02313   -7.67579
       O     6.26086  -11.00560   -8.49798
      H1     6.36526  -10.08877   -8.73032
       H     3.98732  -11.34817   -2.95743
       O     3.67967  -11.42099   -2.04900
      H1     3.17271  -10.60175   -1.88733
       H     6.65492   -8.41937   -5.62537
       O     6.20592   -9.16776   -5.19673
      H1     6.81602   -9.87810   -4.93983

