27
frame 9 | Written by MDAnalysis XYZWriter (release 2.4.3)
       H   -14.76777  -13.44750   -0.50881
       O   -15.20070  -13.83423   -1.29442
      H1   -15.97491  -14.20316   -0.88183
       H   -17.82847  -15.55440   -7.26043
       O   -17.13891  -14.98777   -6.79591
      H1   -16.77729  -15.51937   -6.08102
       H   -17.73750  -14.59163   -3.78688
       O   -18.64361  -14.25635   -3.56225
      H1   -19.14686  -15.05202   -3.29141
       H   -19.50028  -17.58594   -6.46775
       O   -19.09140  -18.01487   -5.73903
      H1   -19.17422  -17.47035   -4.97461
       H   -17.91725  -12.40653   -3.22190
       O   -17.38755  -11.58933   -3.29440
      H1   -17.74603  -10.94520   -2.62905
       H   -17.75061  -15.71060   -0.41703
       O   -17.59214  -16.66812   -0.53669
      H1   -16.97225  -16.89657    0.15782
       H   -16.18875  -13.34318   -6.03713
       O   -15.81225  -12.60471   -5.60395
      H1   -16.53221  -12.18431   -5.13551
       H   -14.79443  -13.38512   -4.41478
       O   -14.29827  -14.04084   -3.84420
      H1   -14.58238  -13.99803   -2.90347
       H   -15.64422  -15.28812   -3.96678
       O   -16.47035  -15.75120   -4.13075
      H1   -16.19076  -16.55363   -3.63816

