27
frame 9 | Written by MDAnalysis XYZWriter (release 2.4.3)
       H   -17.38869   -1.59977  -14.12306
       O   -16.80389   -1.00454  -13.65978
      H1   -16.33499   -1.64377  -13.14161
       H   -15.21422   -1.85833  -16.16618
       O   -14.55886   -1.12940  -16.13115
      H1   -14.81682   -0.61214  -15.36892
       H   -16.24420    5.22596  -16.37228
       O   -15.71567    4.52370  -15.91841
      H1   -14.91542    4.53336  -16.51008
       H   -17.96552   -1.46996  -16.18405
       O   -18.78948   -1.40129  -15.60264
      H1   -18.97109   -2.31701  -15.26736
       H   -16.98177    0.53073  -16.89571
       O   -17.56223    0.26987  -17.60188
      H1   -17.06713    0.19568  -18.45345
       H   -14.96101    0.19036  -19.26804
       O   -14.12330    0.06859  -18.78462
      H1   -14.35069   -0.34191  -17.92600
       H   -17.96361    1.99400  -12.31632
       O   -18.14793    1.49491  -13.15652
      H1   -17.75104    0.59271  -13.27400
       H   -16.93660    1.67506  -14.52754
       O   -16.30886    1.64131  -15.26405
      H1   -16.18434    2.58948  -15.53770
       H   -14.74700    1.51540  -14.21352
       O   -13.88098    1.30627  -13.76434
      H1   -13.42503    2.18225  -13.85603

