27
frame 9 | Written by MDAnalysis XYZWriter (release 2.4.3)
       H    -6.83521   -7.62421   18.69215
       O    -6.45650   -8.50757   18.42350
      H1    -6.87291   -8.78740   17.61873
       H    -1.97087   -4.24864   14.67632
       O    -2.27236   -4.91323   15.26400
      H1    -3.20260   -4.93648   15.32933
       H    -3.66710   -2.33276   19.48950
       O    -4.11817   -3.10286   19.86023
      H1    -3.66776   -3.83067   19.47754
       H    -2.86345   -8.65175   18.01149
       O    -3.55088   -8.89517   18.62477
      H1    -4.37386   -8.55940   18.19862
       H    -1.84076   -5.73654   18.78651
       O    -2.35727   -4.97751   18.36312
      H1    -1.91508   -4.73105   17.52776
       H    -8.85234   -4.78575   17.48487
       O    -8.09855   -5.32235   17.88227
      H1    -7.56323   -5.68782   17.18552
       H    -6.12354   -2.95817   15.92944
       O    -5.96282   -3.35101   16.81250
      H1    -5.24537   -2.76076   17.13525
       H    -4.73858   -6.72815   16.46913
       O    -4.39513   -7.37935   15.72882
      H1    -5.00427   -8.11249   15.79278
       H    -4.08624   -5.47145   17.78403
       O    -5.00670   -5.56668   17.46004
      H1    -5.39671   -4.68346   17.27363

