27
frame 8 | Written by MDAnalysis XYZWriter (release 2.4.3)
       H    13.59276   -7.08356    2.43186
       O    14.03306   -6.46639    3.02199
      H1    14.96232   -6.19331    2.64143
       H    14.14777   -4.79506   -3.20172
       O    14.27704   -4.31282   -2.35194
      H1    14.02013   -4.93320   -1.63667
       H    17.33692   -8.29552    3.00331
       O    16.64615   -8.98187    3.12634
      H1    16.37109   -8.61224    3.98273
       H    12.91008   -6.22981    0.57828
       O    13.26713   -5.39936    0.30262
      H1    14.17877   -5.39178    0.68681
       H    17.63196   -2.90513    0.07556
       O    16.71572   -3.11084    0.05772
      H1    16.46662   -3.18196   -0.89214
       H    19.29175   -4.04999    3.08933
       O    18.68590   -4.55148    2.59842
      H1    17.83074   -4.13795    2.70964
       H    16.55129   -6.30397    0.86667
       O    15.99780   -5.57865    1.16906
      H1    16.27066   -4.79317    0.68373
       H    19.25814   -7.78200    2.12559
       O    18.80732   -7.29600    2.83178
      H1    18.67301   -6.35004    2.67129
       H    18.11468   -6.99810   -1.19139
       O    17.29176   -7.08204   -0.61690
      H1    17.35890   -7.95405   -0.14867

