27
frame 8 | Written by MDAnalysis XYZWriter (release 2.4.3)
       H   -16.33225   18.72434   -6.19841
       O   -16.13089   19.63705   -5.91563
      H1   -16.90909   20.18190   -6.30221
       H   -13.34298   18.04136  -10.16087
       O   -13.63025   17.17664  -10.45595
      H1   -12.85328   16.57757  -10.65815
       H   -12.90752   17.36564   -6.58115
       O   -11.97270   17.43887   -6.40613
      H1   -11.77475   17.00276   -5.55557
       H   -19.07271   17.00962   -5.41694
       O   -18.34252   17.00715   -6.06954
      H1   -17.86304   16.21520   -5.89011
       H   -16.58628   18.24104   -9.78785
       O   -16.60447   18.65289   -8.92546
      H1   -16.59439   19.64403   -9.13190
       H   -12.75244   13.71252   -8.25250
       O   -12.24093   14.04458   -7.48360
      H1   -11.90021   14.91561   -7.71313
       H   -18.33098   17.99551   -8.72774
       O   -19.26461   17.72005   -8.52880
      H1   -19.21221   17.42211   -7.58195
       H   -14.99480   17.54821   -7.97896
       O   -14.32423   16.97473   -7.55750
      H1   -13.96100   16.47845   -8.24441
       H   -16.05354   14.41329   -5.93988
       O   -16.98721   14.40837   -6.00494
      H1   -17.25409   13.57840   -5.47917

