27
frame 8 | Written by MDAnalysis XYZWriter (release 2.4.3)
       H    17.17268   -2.56767   12.86904
       O    16.98982   -2.73631   13.83305
      H1    17.11795   -1.91301   14.32166
       H    16.03938   -0.83295   18.22795
       O    16.82829   -0.28797   18.15003
      H1    16.55569    0.58939   18.43146
       H    17.97153    0.19137   15.31485
       O    17.39010   -0.60094   15.36519
      H1    17.08102   -0.56873   16.24783
       H    17.06199    3.48342   13.31629
       O    16.95650    3.99968   14.10757
      H1    16.42402    3.42417   14.69409
       H    15.89083    0.45938   14.99389
       O    14.99136    0.84592   15.03855
      H1    14.45967    0.33530   14.38759
       H    16.46286    2.64430   18.22361
       O    16.83889    2.26920   19.01861
      H1    17.77243    2.09153   18.95506
       H    16.88791    3.18934   10.86902
       O    17.13702    2.77830   11.71801
      H1    17.05164    1.82262   11.61186
       H    15.01430    2.59683   16.07967
       O    15.58320    3.22600   16.54740
      H1    14.94426    3.93998   16.65231
       H    19.04646    2.02134   16.21909
       O    18.61403    1.93536   15.37847
      H1    18.16961    2.80021   15.25675

