27
frame 8 | Written by MDAnalysis XYZWriter (release 2.4.3)
       H   -16.30649   -5.22051   13.02393
       O   -15.62424   -4.55447   13.17083
      H1   -15.69848   -4.41479   14.13685
       H   -18.26616   -3.03068   15.95592
       O   -18.33356   -3.97046   16.09897
      H1   -18.59370   -4.08270   17.01317
       H   -20.00970   -5.27700   18.66915
       O   -19.05715   -4.96241   18.76754
      H1   -18.90434   -4.96143   19.73763
       H   -18.86528   -2.81066   19.42353
       O   -18.75203   -1.86447   19.29499
      H1   -19.60352   -1.40361   19.37303
       H   -17.01029   -6.64166   16.26677
       O   -16.54801   -6.07838   15.64269
      H1   -16.91250   -5.15975   15.78946
       H   -14.87431   -3.66379   16.65666
       O   -14.94414   -3.46968   15.72818
      H1   -15.35802   -2.59464   15.68755
       H   -19.04883   -0.66455   12.21421
       O   -18.83384   -1.46065   12.69339
      H1   -18.77974   -1.23540   13.59871
       H   -17.44982   -1.01092   15.72254
       O   -18.37883   -1.23718   15.68358
      H1   -18.61061   -1.12680   16.61838
       H   -15.47102   -0.16015   16.04112
       O   -15.61763   -0.83221   15.39730
      H1   -15.02937   -0.55900   14.67140

