27
frame 9 | Written by MDAnalysis XYZWriter (release 2.4.3)
       H    -2.31784  -11.02740  -17.54523
       O    -1.67769  -11.73447  -17.72898
      H1    -2.09936  -12.18594  -18.47585
       H     3.47430  -11.52200  -15.24364
       O     3.03193  -11.61645  -16.11294
      H1     2.27922  -12.20604  -16.14588
       H     2.77063   -9.89415  -16.45331
       O     3.17823   -8.99517  -16.45923
      H1     3.84776   -9.15910  -15.80498
       H     0.76245  -13.65096  -17.00634
       O     0.59678  -12.75597  -16.60715
      H1    -0.23241  -12.48606  -17.04894
       H    -3.64414  -10.58783  -20.26707
       O    -3.84303  -11.37044  -19.79264
      H1    -4.40277  -11.01759  -19.10742
       H    -4.32731  -10.05452  -16.70864
       O    -3.53545   -9.78316  -17.23894
      H1    -3.70123   -8.83698  -17.54999
       H    -0.45441   -7.47211  -19.71995
       O    -0.88645   -6.63802  -19.56343
      H1    -0.99426   -6.43792  -18.60041
       H     0.34905   -9.42985  -19.12916
       O    -0.22091   -9.48233  -18.36779
      H1    -0.53827  -10.45026  -18.35421
       H    -0.72591   -8.23528  -16.21214
       O    -1.16087   -7.77193  -15.49335
      H1    -0.45969   -7.44059  -14.90164

