27
frame 8 | Written by MDAnalysis XYZWriter (release 2.4.3)
       H    17.47323  -14.05567   -6.59758
       O    17.10408  -14.34324   -7.44898
      H1    17.11629  -13.56877   -8.04814
       H    18.75996  -14.84874   -8.18341
       O    19.57209  -15.40426   -8.29062
      H1    19.33447  -16.19301   -8.84344
       H    17.37319  -16.15489  -14.08954
       O    16.96584  -15.29517  -13.95479
      H1    17.66105  -14.65112  -13.69611
       H    14.28443  -12.13241  -11.27066
       O    15.24960  -12.24566  -11.32164
      H1    15.41392  -13.18231  -11.45749
       H    19.24281  -10.62942  -12.08877
       O    19.23219   -9.73371  -12.45471
      H1    18.29783   -9.47586  -12.20190
       H    17.24332  -11.27958   -8.77542
       O    16.55313  -11.93467   -8.82480
      H1    16.19336  -11.84579   -9.73682
       H    19.40948  -12.96465  -11.10307
       O    19.17753  -12.43816  -11.89665
      H1    19.99377  -12.35655  -12.42311
       H    15.93460  -11.23601  -12.49068
       O    16.56708  -10.59154  -12.90407
      H1    17.45164  -10.85470  -12.69327
       H    17.22528  -15.91577  -10.64709
       O    18.00419  -15.85685  -11.26696
      H1    18.04310  -16.73634  -11.76143

