27
frame 9 | Written by MDAnalysis XYZWriter (release 2.4.3)
       H   -16.22439    4.67125   18.31082
       O   -15.35091    5.13305   18.21881
      H1   -15.27144    6.01114   18.56242
       H   -19.58646    6.13750   16.20746
       O   -18.75955    5.72134   15.93249
      H1   -19.03839    5.41483   15.07889
       H   -17.25596    6.09245   15.54902
       O   -16.26950    6.19833   15.38274
      H1   -16.02007    6.66173   14.56075
       H   -15.93948    7.38789   16.62564
       O   -15.66036    8.17034   17.18738
      H1   -15.40504    8.81184   16.54639
       H   -13.88787    8.90540   14.67692
       O   -13.15796    8.36593   14.32061
      H1   -13.03299    7.71627   15.05094
       H   -16.96522    8.12510   18.74836
       O   -17.61914    7.74613   19.37815
      H1   -18.44004    8.25438   19.18362
       H   -13.14395    5.82611   15.91162
       O   -12.58502    6.51690   16.27873
      H1   -11.84568    6.06533   16.73747
       H   -14.76435    4.52833   16.42421
       O   -14.30486    3.96841   15.79459
      H1   -15.02214    4.01436   15.08953
       H   -17.61347    5.79571   19.02599
       O   -17.97936    4.96458   18.69309
      H1   -18.15619    5.10963   17.75151

