27
frame 8 | Written by MDAnalysis XYZWriter (release 2.4.3)
       H   -15.87748  -14.14757   18.05119
       O   -16.29308  -13.91376   17.21264
      H1   -15.65634  -13.90150   16.51007
       H   -13.26565  -12.37202   17.52372
       O   -13.20621  -12.79053   16.65444
      H1   -13.26012  -13.73167   16.87114
       H   -17.00378  -10.45611   14.22660
       O   -17.34607  -10.66526   15.07815
      H1   -16.63081  -10.54101   15.70422
       H   -12.09476  -15.43826   15.99379
       O   -12.62813  -15.50871   16.83411
      H1   -12.00640  -15.58398   17.59996
       H   -15.65276  -14.66854   12.95345
       O   -15.02226  -14.55652   13.72170
      H1   -14.84960  -15.45278   14.05412
       H   -17.70132  -15.18511   17.49298
       O   -18.47568  -15.69507   17.79089
      H1   -19.17328  -15.57932   17.11664
       H   -17.83191  -11.10596   18.42928
       O   -18.36990  -11.90689   18.41893
      H1   -17.84042  -12.64589   18.06686
       H   -19.02019  -13.05443   14.17379
       O   -19.41546  -12.40278   14.81436
      H1   -18.64992  -11.71039   14.96615
       H   -14.62021  -15.90110   15.67959
       O   -14.71132  -16.76993   15.28158
      H1   -15.57157  -17.22323   15.56556

