27
frame 9 | Written by MDAnalysis XYZWriter (release 2.4.3)
       H    -1.60744   17.35510   -1.91119
       O    -1.97313   17.19853   -1.01225
      H1    -1.70383   18.00036   -0.51244
       H    -1.85233   18.58665   -6.18601
       O    -1.01363   18.27667   -5.82431
      H1    -0.29678   18.37888   -6.48609
       H    -1.18437   15.67702   -3.73431
       O    -1.65028   16.50744   -3.81327
      H1    -1.37223   16.91391   -4.68195
       H    -6.25197   18.09171   -3.99263
       O    -7.06828   18.50142   -3.81232
      H1    -6.90710   19.05916   -3.07838
       H    -3.46036   16.81478   -4.29360
       O    -4.32046   17.33695   -4.27223
      H1    -4.44351   17.45057   -3.30674
       H    -6.28769   15.01384   -6.97712
       O    -6.08923   15.93781   -7.32788
      H1    -5.29775   16.24584   -6.93618
       H    -3.71499   17.19079   -1.22768
       O    -4.53405   17.62622   -1.54706
      H1    -5.27685   17.03774   -1.41478
       H    -3.73486   19.60249   -6.15074
       O    -3.85142   18.69201   -6.48865
      H1    -4.06522   18.27021   -5.64559
       H    -1.85085   14.24898   -5.61603
       O    -2.18913   14.81867   -6.31958
      H1    -1.40893   15.40358   -6.53692

