27
frame 8 | Written by MDAnalysis XYZWriter (release 2.4.3)
       H   -14.27848  -11.07900  -16.32367
       O   -15.10061  -11.57145  -16.50345
      H1   -15.77265  -10.87486  -16.25776
       H   -18.48604   -6.74482  -15.68421
       O   -19.17661   -6.62654  -16.34347
      H1   -19.18396   -7.45738  -16.84216
       H   -16.38814  -10.28947  -18.25934
       O   -16.25454   -9.40714  -18.71173
      H1   -16.39050   -8.80449  -18.00538
       H   -12.61283   -8.73126  -16.52986
       O   -12.57451   -7.88665  -16.98029
      H1   -11.82035   -7.75183  -17.58768
       H   -18.41867  -11.94138  -18.89363
       O   -18.15555  -12.06044  -17.98274
      H1   -18.90955  -11.67409  -17.51926
       H   -14.94250   -5.98560  -17.10179
       O   -15.06851   -6.92921  -17.03213
      H1   -14.09719   -7.18488  -17.06410
       H   -18.79927   -3.90594  -17.61370
       O   -18.18371   -4.58936  -18.04130
      H1   -18.23548   -5.43862  -17.47692
       H   -15.31004   -6.50461  -18.98853
       O   -15.39073   -6.41849  -19.97277
      H1   -15.32915   -5.51600  -20.19085
       H   -17.58443  -10.46282  -15.04083
       O   -17.11351   -9.86764  -15.59660
      H1   -17.14917   -9.04056  -15.11192

