27
frame 8 | Written by MDAnalysis XYZWriter (release 2.4.3)
       H    17.30253  -12.05691  -16.89033
       O    18.26396  -12.01712  -16.95140
      H1    18.45782  -11.22574  -16.33948
       H    15.19807  -13.38841  -16.01702
       O    14.88745  -14.11797  -15.54339
      H1    15.52523  -14.41351  -14.88883
       H    18.92789   -9.95597  -14.63588
       O    18.38005   -9.81428  -15.40628
      H1    17.47382   -9.90338  -15.11253
       H    18.50407   -8.72928  -18.81383
       O    19.26822   -8.63433  -18.22125
      H1    20.07024   -8.94409  -18.72646
       H    17.17339  -15.03698  -20.03708
       O    17.52693  -14.99073  -19.17033
      H1    18.27873  -14.36251  -19.24480
       H    19.24281  -10.62942  -12.08877
       O    19.23219   -9.73371  -12.45471
      H1    18.29783   -9.47586  -12.20190
       H    15.12647  -10.65092  -15.89226
       O    15.60684  -11.41407  -16.24572
      H1    15.28938  -11.40350  -17.19280
       H    18.28829  -11.80983  -18.93912
       O    18.19991  -11.81284  -19.91231
      H1    19.06771  -11.54524  -20.27061
       H    15.93460  -11.23601  -12.49068
       O    16.56708  -10.59154  -12.90407
      H1    17.45164  -10.85470  -12.69327

