27
frame 9 | Written by MDAnalysis XYZWriter (release 2.4.3)
       H    -9.40559   18.85927    1.74296
       O   -10.04503   18.43685    1.12032
      H1   -10.74884   18.09328    1.70748
       H    -6.68143   17.91969    4.15104
       O    -6.26656   17.06629    4.07976
      H1    -6.32764   16.80281    3.16672
       H    -2.69313   19.32034    3.95050
       O    -2.57242   18.44672    3.57992
      H1    -3.44585   18.08037    3.32515
       H    -7.05557   15.74873   -2.90012
       O    -6.44035   15.48841   -2.20134
      H1    -6.48220   14.51496   -2.13250
       H    -6.32728   13.07816    2.15163
       O    -5.51078   13.58681    1.86858
      H1    -5.76832   14.50747    1.93430
       H    -5.23868   18.58830   -0.11309
       O    -5.71563   19.17503    0.48319
      H1    -5.11973   19.62045    1.12969
       H    -7.19744   16.26489    1.10562
       O    -6.28114   16.51397    1.37682
      H1    -6.02993   17.40283    1.18846
       H    -3.71499   17.19079   -1.22768
       O    -4.53405   17.62622   -1.54706
      H1    -5.27685   17.03774   -1.41478
       H    -8.83342   15.52872   -0.00264
       O    -8.99200   15.82257    0.86953
      H1    -9.27726   16.75377    0.81396

