27
frame 10 | Written by MDAnalysis XYZWriter (release 2.4.3)
       H   -18.35090    0.92421   10.55050
       O   -19.15291    0.68993   11.04628
      H1   -19.33939    1.40357   11.64992
       H   -13.55253    2.32042   10.34094
       O   -12.65189    2.35076   10.00378
      H1   -12.44483    1.57249    9.49425
       H   -15.70857    2.80532   12.85986
       O   -16.03471    3.16460   13.70079
      H1   -15.64352    4.03125   13.79024
       H   -18.94408    2.65240   13.91475
       O   -18.56914    2.62710   13.03213
      H1   -17.64439    2.78491   13.08006
       H   -14.85945    1.03928   11.99411
       O   -14.97085    1.90036   11.52805
      H1   -15.79514    1.92731   10.98152
       H   -16.98963    1.30051    8.57615
       O   -16.74073    1.26817    9.56311
      H1   -15.91246    0.72599    9.53630
       H   -14.77685   -1.17525   12.85154
       O   -14.37161   -0.32536   13.03591
      H1   -13.49472   -0.43394   12.56083
       H   -14.07590   -0.15235    8.81566
       O   -14.74719   -0.34027    9.49997
      H1   -15.42930   -0.85324    9.08399
       H   -11.64757    2.61065   11.19858
       O   -10.83436    2.62745   11.76773
      H1   -11.15083    3.14564   12.52800

