27
frame 10 | Written by MDAnalysis XYZWriter (release 2.4.3)
       H    -5.99741  -16.45051   10.60201
       O    -5.20871  -16.29426   10.03917
      H1    -4.93510  -17.21635    9.91009
       H    -1.61809  -16.21111    9.24229
       O    -1.56845  -15.26154    9.17141
      H1    -2.07670  -14.87915    8.50240
       H    -3.75077  -16.17200   11.36274
       O    -3.49700  -15.66474   12.10340
      H1    -2.96554  -16.17318   12.67941
       H    -0.86631  -18.21440    8.98223
       O    -1.38223  -18.02355    9.77557
      H1    -0.92041  -18.20925   10.52878
       H    -2.47283  -17.20858    4.05875
       O    -2.64397  -17.90209    4.74369
      H1    -1.99606  -17.78341    5.42918
       H    -3.95911  -19.09958    8.90014
       O    -3.92397  -18.77761    9.83204
      H1    -2.97261  -18.60933    9.89400
       H    -0.00328  -18.03782    6.40070
       O    -0.77340  -18.45688    6.84340
      H1    -0.57186  -19.38157    6.83832
       H    -7.07004  -19.96819   10.72230
       O    -7.80341  -19.42590   11.13068
      H1    -7.90369  -18.55127   10.60555
       H    -3.92793  -18.85365    6.38722
       O    -4.04878  -19.55442    7.00736
      H1    -3.25369  -20.08555    6.92930

