27
frame 9 | Written by MDAnalysis XYZWriter (release 2.4.3)
       H    -7.74641   -7.59124    9.57648
       O    -8.68375   -7.73950    9.61388
      H1    -8.94238   -8.60494    9.90676
       H    -9.91130  -10.62047    9.90749
       O    -9.11490  -10.22164   10.25461
      H1    -8.50765  -10.61468    9.62177
       H    -9.01835  -10.66003   12.48816
       O    -8.48639  -11.07700   13.19254
      H1    -7.56577  -10.98000   12.89574
       H   -11.78077   -9.65307   12.24500
       O   -11.63209  -10.64713   12.16195
      H1   -12.34587  -10.75061   11.50437
       H    -7.51879  -12.76732   14.73572
       O    -6.78190  -13.41148   14.78475
      H1    -6.90738  -14.05526   14.04784
       H   -12.90969  -11.52237   14.93219
       O   -12.19884  -12.09218   14.56248
      H1   -11.89536  -11.51103   13.80106
       H    -5.62753  -11.45174   11.74189
       O    -5.81900  -10.70422   12.31965
      H1    -5.27586  -10.69266   13.10872
       H    -6.78731  -10.02370   15.18344
       O    -7.22246   -9.35722   15.76034
      H1    -8.04958   -9.15842   15.30712
       H   -10.13558   -8.65120   14.00233
       O   -10.05073   -9.33037   14.70896
      H1    -9.70804  -10.10311   14.22526

