27
frame 9 | Written by MDAnalysis XYZWriter (release 2.4.3)
       H   -10.69922    8.32122  -11.85812
       O   -10.30818    8.31259  -12.77795
      H1    -9.91365    7.44767  -12.99166
       H    -9.05976    5.15636  -13.22636
       O    -9.17012    5.93934  -13.80053
      H1    -8.86246    5.71047  -14.67124
       H   -11.16062    5.09519  -10.72318
       O   -10.64985    4.78771  -11.50802
      H1   -11.36136    4.60885  -12.12833
       H    -9.80845    3.38294  -11.47192
       O    -9.19569    2.61098  -11.44372
      H1    -8.52471    2.74363  -12.11219
       H   -12.19541    6.64693   -9.36693
       O   -12.24659    5.67982   -9.28952
      H1   -11.60094    5.49626   -8.59341
       H   -13.44431    4.45204  -13.28126
       O   -12.78536    3.79313  -13.10967
      H1   -13.12353    3.36061  -12.31978
       H    -9.67581   -0.00155  -13.33973
       O   -10.19017    0.26952  -12.57058
      H1   -10.00279    1.22756  -12.57527
       H   -12.34658    6.81940  -14.57760
       O   -11.71985    6.11544  -14.79443
      H1   -10.92879    6.13917  -14.19608
       H   -14.74700    1.51540  -14.21352
       O   -13.88098    1.30627  -13.76434
      H1   -13.42503    2.18225  -13.85603

