27
frame 10 | Written by MDAnalysis XYZWriter (release 2.4.3)
       H     6.44839   -5.52038  -18.94357
       O     6.67982   -6.46728  -18.79412
      H1     5.88092   -6.92045  -19.18816
       H     5.87231   -6.21981  -16.95481
       O     5.02482   -6.40820  -16.57000
      H1     5.08126   -6.12558  -15.63769
       H     3.69472   -9.52125  -16.97340
       O     3.55381   -8.64271  -17.34856
      H1     4.01355   -7.93338  -16.84105
       H     0.62129   -5.90009  -19.92684
       O     0.21518   -5.29560  -19.28133
      H1    -0.55880   -5.79413  -19.01682
       H     4.47119   -4.03446  -18.70821
       O     5.19004   -4.01793  -18.04076
      H1     4.90861   -4.56466  -17.27603
       H     2.89415   -4.35406  -14.94254
       O     2.29863   -4.77478  -15.59263
      H1     1.86534   -4.04183  -16.07866
       H     3.45274   -2.40722  -14.40605
       O     3.61649   -3.15214  -13.75978
      H1     3.67250   -2.65431  -12.95471
       H     8.05179   -3.50018  -17.49110
       O     8.24212   -3.76409  -18.38530
      H1     8.90116   -3.10793  -18.62926
       H     6.96917   -1.76371  -18.18093
       O     7.25195   -0.91321  -18.50800
      H1     8.18071   -1.00513  -18.76584

