27
frame 10 | Written by MDAnalysis XYZWriter (release 2.4.3)
       H    -7.14118   -8.38601   -8.03201
       O    -7.26252   -8.97293   -7.31081
      H1    -6.47201   -8.83459   -6.77316
       H   -10.13796  -10.39773   -6.88833
       O    -9.80091  -11.29549   -6.65003
      H1   -10.55562  -11.86539   -6.51545
       H    -8.73993  -15.26368   -4.97043
       O    -8.54135  -14.37724   -5.47958
      H1    -9.22433  -13.84477   -5.05894
       H   -10.12876   -8.07688   -7.76894
       O    -9.81257   -8.37959   -6.93946
      H1    -8.90777   -8.55948   -7.04312
       H    -6.38799   -8.19551   -4.79357
       O    -5.88564   -8.98979   -4.94715
      H1    -6.42729   -9.71747   -4.75560
       H    -7.99206   -8.27760   -2.01335
       O    -7.30757   -8.11934   -1.37440
      H1    -6.46817   -7.98511   -1.81418
       H    -8.65888  -11.17710   -5.18237
       O    -8.21702  -10.69908   -4.51892
      H1    -8.04960  -11.27271   -3.77296
       H    -9.05162   -9.11025   -4.09963
       O    -9.34723   -8.33817   -3.56218
      H1   -10.15716   -7.97124   -3.99474
       H    -8.70523  -12.41072   -2.08951
       O    -7.74817  -12.20699   -2.32193
      H1    -7.42025  -13.06785   -2.68326

