27
frame 10 | Written by MDAnalysis XYZWriter (release 2.4.3)
       H     4.94697   11.84445   18.38968
       O     4.39217   12.13589   17.62051
      H1     4.95761   11.92378   16.85591
       H     5.30411   12.58193   14.58282
       O     5.78345   11.92353   15.20804
      H1     5.92571   11.05289   14.73096
       H     4.10468   14.49925   14.01610
       O     4.34319   13.64297   13.69394
      H1     4.76995   13.68406   12.85528
       H     8.90403   12.10552   15.37275
       O     8.27344   12.62377   14.84455
      H1     7.42364   12.32297   15.17444
       H     5.91266   13.68152   10.75004
       O     5.79644   12.73477   10.96951
      H1     5.10589   12.52001   10.36732
       H     0.83345   15.24417   14.04974
       O     1.42320   15.71272   13.41680
      H1     1.68125   15.08988   12.78275
       H     1.06785   14.11143   10.73069
       O     1.93697   14.03077   11.11835
      H1     2.25816   13.14647   10.96742
       H     3.28306   10.72691   12.61700
       O     2.72847   11.32172   13.13336
      H1     3.24886   12.08009   13.36554
       H     4.05642   16.62063   15.47465
       O     4.00939   16.26371   14.61951
      H1     3.48877   16.87153   14.12847

