27
frame 9 | Written by MDAnalysis XYZWriter (release 2.4.3)
       H   -11.75080   13.83582   15.22175
       O   -11.89626   12.84829   15.11625
      H1   -11.06361   12.37778   15.31233
       H   -11.76787   15.15416   19.46448
       O   -12.68527   15.12768   19.17694
      H1   -13.03240   15.96824   19.52237
       H   -14.47865   12.95888   17.13376
       O   -14.43654   12.98985   16.18138
      H1   -13.50980   12.86767   15.97372
       H   -15.00742   14.67605   15.63079
       O   -15.37141   15.33729   15.05138
      H1   -15.64510   16.10969   15.60852
       H   -11.57818    9.37561   17.99301
       O   -12.40735    9.24460   18.49900
      H1   -12.88980    8.60834   17.89968
       H   -14.92262   11.16935   15.81281
       O   -15.10520   10.41091   15.19258
      H1   -14.96177   10.85013   14.32521
       H   -13.02988   11.25644   18.74561
       O   -13.50677   12.07229   18.87450
      H1   -12.94427   12.86554   18.90991
       H   -17.82556   11.63876   18.32549
       O   -18.15177   11.65859   17.43657
      H1   -18.98714   12.11611   17.57004
       H   -10.26721   12.10895   19.93872
       O    -9.68884   12.18228   19.18189
      H1    -9.84082   11.43827   18.60235

