27
frame 9 | Written by MDAnalysis XYZWriter (release 2.4.3)
       H     1.03343   14.12891   -2.22699
       O     0.58022   13.35439   -2.65029
      H1    -0.32356   13.62965   -2.74917
       H    -4.01922    9.37169   -3.95871
       O    -3.67608    9.84095   -3.16261
      H1    -4.16975    9.45866   -2.47597
       H    -1.18437   15.67702   -3.73431
       O    -1.65028   16.50744   -3.81327
      H1    -1.37223   16.91391   -4.68195
       H    -0.66265   10.59734   -2.49349
       O    -0.91895   10.33576   -3.43589
      H1    -1.89503   10.05872   -3.40737
       H    -4.05629   11.63035   -3.38792
       O    -4.53441   12.44924   -3.60458
      H1    -4.67932   12.47084   -4.52261
       H     1.00464   13.24307   -4.21796
       O     1.32442   13.33254   -5.18009
      H1     1.39163   12.48581   -5.62664
       H    -1.85085   14.24898   -5.61603
       O    -2.18913   14.81867   -6.31958
      H1    -1.40893   15.40358   -6.53692
       H    -2.89500   13.03267   -3.72051
       O    -1.93127   13.12199   -3.92435
      H1    -1.58518   12.23486   -4.00348
       H     1.38816    8.47768   -4.24193
       O     0.43976    8.36116   -4.45132
      H1     0.03933    9.14149   -4.04977

