27
frame 10 | Written by MDAnalysis XYZWriter (release 2.4.3)
       H     7.29656    9.86635    4.10516
       O     7.88805    9.11781    3.92844
      H1     7.79113    8.93528    2.96238
       H     8.34824    7.80758    4.98478
       O     8.35336    7.01062    5.58489
      H1     9.22487    6.58674    5.46806
       H     7.50725    9.05304    0.56965
       O     7.59485    8.24114    1.06948
      H1     8.45969    7.92292    0.87950
       H     7.30498    6.34107    4.50250
       O     6.81473    5.66107    3.91250
      H1     7.27450    5.55429    3.11647
       H    10.09208   10.38280    5.53253
       O    10.31745   10.30235    4.59395
      H1     9.53842    9.96321    4.22460
       H     5.74053   10.82854    3.63711
       O     5.56816   10.82454    4.56927
      H1     5.18267    9.94175    4.61019
       H    10.91539    8.33948    3.16657
       O    10.84981    7.50196    2.73685
      H1    11.75037    7.24359    2.51884
       H     6.73959   11.67309    1.86329
       O     6.02995   10.95911    1.72895
      H1     5.43536   11.34338    1.08486
       H     4.50311    7.17480    4.73165
       O     5.11150    7.59301    4.09399
      H1     5.73372    6.82683    3.85775

