27
frame 9 | Written by MDAnalysis XYZWriter (release 2.4.3)
       H     5.72964   -8.10192    9.25261
       O     5.61638   -7.96478   10.24605
      H1     6.04781   -8.72658   10.60851
       H     7.76283   -3.94240   12.88760
       O     8.12517   -4.07941   12.00345
      H1     7.48117   -4.57578   11.47955
       H     5.18919   -7.22585    6.94370
       O     5.96092   -7.36708    7.45159
      H1     6.58704   -7.83893    6.91912
       H     3.97176   -3.87900    8.83615
       O     4.58537   -3.49241    9.49661
      H1     5.27518   -4.16746    9.68035
       H     7.15073   -6.07437    7.32709
       O     7.87058   -5.53788    7.61728
      H1     8.55873   -5.60155    6.93277
       H     6.41233   -6.33261   10.20528
       O     6.68459   -5.40081   10.13320
      H1     7.23932   -5.34474    9.36479
       H     8.53799   -1.63843    9.78600
       O     7.92068   -1.53759   10.52185
      H1     7.98197   -2.45161   10.90606
       H     4.30582   -4.25824   12.40021
       O     3.99845   -5.04540   11.95143
      H1     4.33228   -4.90360   11.01843
       H     6.04976   -2.85871    8.48512
       O     6.93449   -2.94487    8.04154
      H1     7.07922   -3.89367    7.87000

