27
frame 10 | Written by MDAnalysis XYZWriter (release 2.4.3)
       H    18.77312  -13.44693   -6.51884
       O    19.38520  -13.68136   -7.25400
      H1    19.02374  -13.29126   -8.07315
       H    18.86247   -9.44072   -8.08025
       O    17.92572   -9.63599   -8.10048
      H1    17.56733   -9.10937   -7.37602
       H    14.88612  -11.60231   -9.15831
       O    15.17049  -12.13954   -8.45210
      H1    16.04522  -12.45215   -8.55731
       H    15.52324   -9.54638   -8.06010
       O    15.15515   -8.83325   -7.48060
      H1    15.57441   -8.93495   -6.62636
       H    17.85407  -12.21074   -5.09825
       O    17.85277  -13.16107   -4.97449
      H1    18.62982  -13.47609   -4.50399
       H    19.56445   -6.61472   -8.58121
       O    18.64977   -6.83704   -8.35205
      H1    18.60509   -7.74717   -8.60882
       H    19.53023   -9.90132  -10.80921
       O    19.17391   -9.03403  -10.82847
      H1    18.24819   -9.19342  -10.54992
       H    17.97081  -11.29624   -8.49373
       O    18.09401  -12.13386   -9.02834
      H1    18.67281  -11.85268   -9.77527
       H    16.95011   -9.81580   -4.72589
       O    17.65105  -10.47505   -4.95075
      H1    18.45060  -10.03139   -4.51152

