27
frame 9 | Written by MDAnalysis XYZWriter (release 2.4.3)
       H    11.15052   14.16852  -19.79682
       O    10.33670   14.68954  -19.73476
      H1    10.34723   15.09148  -18.88403
       H     8.36826   16.60787  -14.58576
       O     7.66062   16.60429  -15.32204
      H1     6.84418   16.21238  -15.09719
       H    10.51609   15.69860  -16.28472
       O     9.89553   15.63386  -17.02152
      H1     9.05021   15.87941  -16.54909
       H     6.28839   14.13874  -17.80441
       O     6.65812   14.33486  -18.67862
      H1     7.57484   13.98419  -18.47975
       H     9.12720   14.08960  -17.61843
       O     8.68043   13.17430  -17.61896
      H1     8.19902   13.13311  -16.77549
       H     9.83664   11.30725  -19.69910
       O    10.03496   10.54881  -19.10706
      H1    10.93713   10.28521  -19.24450
       H     6.08644   12.50911  -19.10658
       O     5.64297   11.64306  -19.08429
      H1     6.20941   11.01842  -19.58549
       H    10.61949   12.86598  -17.01457
       O    11.34293   12.19338  -17.16453
      H1    10.82384   11.58848  -17.69217
       H     8.71145   12.04059  -15.03438
       O     7.87726   12.53693  -15.19343
      H1     7.16785   11.95251  -14.96801

