27
frame 9 | Written by MDAnalysis XYZWriter (release 2.4.3)
       H     7.14343  -17.99883   14.51654
       O     7.15393  -17.07754   14.31936
      H1     6.24140  -16.78014   14.25769
       H     3.28286  -20.02130   12.21250
       O     2.80969  -19.38200   12.72828
      H1     3.32601  -19.35900   13.56859
       H     5.00859  -13.25904   12.58586
       O     5.82006  -13.72265   12.82409
      H1     6.01879  -14.28371   12.06243
       H     4.72678  -19.98626   10.06801
       O     4.86309  -19.14680    9.64473
      H1     5.13695  -18.53627   10.32841
       H     8.81357  -18.30979   10.89437
       O     7.98913  -18.85731   11.12614
      H1     8.27807  -19.71440   11.36759
       H     7.19239  -15.99986   11.30160
       O     7.87317  -15.29785   11.39588
      H1     8.05168  -15.26325   12.32556
       H     2.99125  -17.66162   12.15473
       O     2.88498  -16.72957   12.21034
      H1     3.00584  -16.30965   11.31554
       H     6.72533  -17.75700   11.30850
       O     5.99423  -17.06717   11.35638
      H1     5.68625  -17.19391   12.25788
       H     5.08078  -14.98529   13.69853
       O     4.68201  -15.72776   14.20277
      H1     3.97916  -15.90215   13.51841

