27
frame 10 | Written by MDAnalysis XYZWriter (release 2.4.3)
       H   -11.36393    0.94797   12.22262
       O   -11.69646    0.12040   12.61207
      H1   -11.73998    0.31790   13.57810
       H   -11.32500    1.34035   18.49641
       O   -10.52510    1.49696   17.88783
      H1    -9.74689    1.40470   18.42633
       H   -12.82180   -2.99560   16.06228
       O   -11.94090   -2.95863   15.69610
      H1   -11.89486   -3.40467   14.86437
       H   -13.12201    1.61784   19.27431
       O   -13.01389    0.68598   19.01896
      H1   -13.70677    0.10788   19.47520
       H    -8.71474   -1.36951   18.31917
       O    -8.95942   -1.28973   17.39270
      H1    -8.34403   -0.54619   17.19232
       H   -11.80263   -1.07801   19.13877
       O   -11.40359   -1.95120   18.91212
      H1   -11.40482   -2.07545   17.95258
       H   -14.81001    2.31623   16.99368
       O   -15.01700    1.53819   17.51525
      H1   -14.15970    1.18748   17.88473
       H   -14.92893    0.13902   16.42130
       O   -14.91535   -0.69582   15.87578
      H1   -14.60403   -0.39689   15.03519
       H   -11.43097    0.40896   16.21513
       O   -12.08857    0.19006   15.53506
      H1   -12.20025   -0.78601   15.70784

