27
frame 10 | Written by MDAnalysis XYZWriter (release 2.4.3)
       H    -0.30950  -17.26420    3.00746
       O     0.56167  -17.68140    3.07888
      H1     1.17905  -17.01529    2.79564
       H     1.42906  -14.86083    1.95437
       O     2.12623  -15.49901    2.27540
      H1     2.68447  -15.67906    1.48897
       H    -0.38788  -13.34637    4.94463
       O     0.34803  -12.79518    5.26313
      H1     1.09871  -13.00671    4.74415
       H    -3.89476  -12.86024    1.61602
       O    -3.75663  -13.02285    2.54705
      H1    -4.52080  -13.54612    2.84992
       H    -2.47283  -17.20858    4.05875
       O    -2.64397  -17.90209    4.74369
      H1    -1.99606  -17.78341    5.42918
       H    -0.91349  -14.81375    0.40284
       O    -1.45431  -15.54708    0.01544
      H1    -0.82324  -16.01766   -0.57730
       H    -1.80874  -16.01176    1.75113
       O    -1.85627  -16.10592    2.74817
      H1    -2.05714  -15.23412    3.09555
       H    -0.15940  -12.89253    1.48567
       O     0.32787  -13.72574    1.26893
      H1     0.92643  -13.53131    0.59240
       H    -2.61910  -13.39773    3.75379
       O    -2.02592  -13.68359    4.47547
      H1    -2.62865  -13.91219    5.26579

