30
frame 1 | Written by MDAnalysis XYZWriter (release 2.4.3)
       H    -7.81943   -7.85153  -17.20907
       O    -7.50367   -8.61353  -17.76444
      H1    -7.12039   -8.30667  -18.56143
       H   -10.27275  -11.33633  -18.45448
       O   -11.09495  -11.66710  -18.87130
      H1   -11.24947  -11.11215  -19.67364
       H    -4.87722  -12.12547  -16.09617
       O    -4.53564  -12.80621  -15.51915
      H1    -3.81149  -13.13135  -16.15363
       H    -4.71090   -9.61882  -15.91520
       O    -5.20486   -9.78010  -16.72017
      H1    -5.96165   -9.19964  -16.94468
       H    -5.56803  -14.40436  -15.91022
       O    -6.14004  -15.20611  -16.12446
      H1    -6.85519  -14.80860  -16.63314
       H    -8.08887  -13.25250  -14.26954
       O    -8.84506  -13.22849  -14.87619
      H1    -8.69996  -12.51436  -15.50555
       H    -5.93214  -12.59176  -13.93683
       O    -6.59058  -12.76795  -13.27474
      H1    -6.79790  -11.91224  -12.89537
       H    -3.09474   -9.98275  -19.46367
       O    -3.15082   -9.35083  -18.70856
      H1    -3.93717   -9.39179  -18.21637
       H    -6.32370  -12.46671  -18.75564
       O    -6.85804  -12.50282  -17.91666
      H1    -6.55929  -11.68495  -17.45851
       H    -8.23721  -11.77535  -17.25863
       O    -9.03716  -11.22390  -17.07967
      H1    -8.81838  -10.32621  -16.69092

