30
frame 1 | Written by MDAnalysis XYZWriter (release 2.4.3)
       H    14.63501  -12.81357    4.15199
       O    13.75875  -12.66009    3.66168
      H1    13.24280  -13.47531    3.81306
       H    11.31032  -15.15302    3.33131
       O    11.59068  -14.71504    4.14551
      H1    11.98705  -15.46944    4.56782
       H     9.23054  -14.31141    6.30247
       O    10.13057  -14.46885    6.56883
      H1    10.58716  -14.48116    5.70595
       H     8.92416  -15.84666    2.17630
       O     9.67913  -16.06101    2.67546
      H1     9.29395  -16.63384    3.37757
       H    12.60627  -10.40934    5.14287
       O    11.92041  -10.49960    4.44480
      H1    12.05096  -11.39570    4.08951
       H     7.93079  -13.51895    4.66337
       O     7.68699  -14.11809    5.40679
      H1     7.34873  -14.89051    4.96366
       H     8.99422  -11.93848    3.24185
       O     8.95211  -12.90128    3.21066
      H1     9.14631  -13.16086    2.29458
       H     8.37768  -17.99929    4.64170
       O     8.36910  -17.00338    4.80320
      H1     8.76958  -16.82487    5.65012
       H    10.94162  -16.13562    7.07525
       O    11.23266  -17.03471    6.93340
      H1    12.04953  -17.18672    7.35416
       H    10.17044  -12.17744    9.41360
       O    10.67319  -12.23645    8.58360
      H1    10.36912  -12.96676    8.02675

