30
frame 1 | Written by MDAnalysis XYZWriter (release 2.4.3)
       H   -15.21821   -0.30651  -17.37776
       O   -14.30341   -0.31612  -17.17509
      H1   -14.22806    0.40853  -16.56761
       H   -12.49196   -4.31984  -18.67407
       O   -11.84605   -5.04622  -18.60970
      H1   -11.41748   -5.16304  -19.46055
       H   -12.55404    1.05137  -19.86103
       O   -13.32607    0.48657  -19.98413
      H1   -13.48860    0.17815  -19.07504
       H   -13.88761   -2.52301  -17.83776
       O   -13.69141   -3.05863  -18.56527
      H1   -14.26551   -2.98536  -19.27207
       H   -16.56680    0.94164  -18.40473
       O   -16.82088    0.08787  -17.99185
      H1   -16.89251   -0.59324  -18.70472
       H   -13.90645   -5.03323  -17.08437
       O   -13.89620   -5.66179  -16.36749
      H1   -12.98931   -5.93050  -16.15933
       H   -15.14602   -0.96848  -15.66373
       O   -15.18438   -1.17495  -14.72564
      H1   -15.40152   -2.11049  -14.73469
       H   -17.21092   -4.06238  -17.47759
       O   -16.58450   -4.72029  -17.83190
      H1   -16.70660   -5.51462  -17.34271
       H   -13.44121   -2.13318  -14.70294
       O   -12.87975   -2.61231  -15.36760
      H1   -12.29918   -3.21271  -14.83732
       H   -11.50399   -0.90874  -17.69868
       O   -11.14657   -1.26616  -16.91649
      H1   -11.92811   -1.71310  -16.50070

