30
frame 1 | Written by MDAnalysis XYZWriter (release 2.4.3)
       H   -10.56908    5.93250   13.73452
       O   -11.05736    6.07382   14.53677
      H1   -11.19534    7.02730   14.64132
       H   -13.05900    3.34436   13.15331
       O   -13.23164    2.47163   13.57922
      H1   -12.49759    2.10996   13.99620
       H   -15.72236    6.23940   10.32492
       O   -15.05380    5.62470    9.86524
      H1   -14.70038    5.09189   10.57397
       H   -14.00333    5.36199   14.00391
       O   -13.47223    5.15469   13.21927
      H1   -12.54624    5.37415   13.55785
       H   -15.45859    2.72492   15.68415
       O   -14.91054    3.48237   15.50130
      H1   -14.26969    3.14700   14.77429
       H   -14.72192    1.77415   13.00527
       O   -15.59600    1.24348   12.81465
      H1   -15.42164    0.66935   12.05759
       H   -12.14398    3.76224    9.94213
       O   -12.91128    3.55560   10.53634
      H1   -13.46364    2.95627    9.98796
       H   -11.27232    0.65055   10.95296
       O   -10.44167    0.90936   11.41427
      H1   -10.82486    0.93957   12.30206
       H   -15.61845    6.58055   15.54910
       O   -14.78679    6.05568   15.47147
      H1   -15.03078    5.17872   15.73034
       H   -11.63707    2.02446   15.84361
       O   -11.38247    1.44016   15.15113
      H1   -11.94700    0.64281   15.04995

