30
frame 1 | Written by MDAnalysis XYZWriter (release 2.4.3)
       H     7.13390    3.50152    4.83915
       O     7.84062    2.83207    4.79338
      H1     7.58319    2.22994    5.55825
       H     5.96994    4.88487    4.08142
       O     5.50142    4.74976    4.90783
      H1     5.94388    5.28998    5.62151
       H     9.25034   -0.64958    2.71126
       O     8.90897   -0.44711    3.58156
      H1     8.33139    0.35897    3.52855
       H     7.05705    0.25450    6.09937
       O     7.02140    1.00454    6.72743
      H1     7.56669    0.91407    7.47599
       H     6.26908    1.63212    2.15337
       O     6.33521    1.40387    3.07498
      H1     6.90077    2.06177    3.51383
       H     5.20404    1.29782    6.81835
       O     4.23534    1.35072    6.63159
      H1     4.07307    2.20125    7.10697
       H    11.21602    3.67241    6.44118
       O    11.29095    4.14058    7.24556
      H1    10.85186    3.60765    7.94797
       H    10.98931   -0.42055    6.11835
       O    10.80973    0.17050    5.33284
      H1    10.13354   -0.25252    4.80895
       H     6.68306    4.86164    0.86517
       O     7.59156    5.14267    0.87876
      H1     8.14395    4.52735    1.35276
       H    10.42240    2.13521    4.53889
       O    10.51231    3.00097    4.89584
      H1     9.59566    3.33639    4.92474

