30
frame 1 | Written by MDAnalysis XYZWriter (release 2.4.3)
       H   -10.22867   -8.05852   15.32299
       O   -10.30388   -8.91575   15.74195
      H1   -10.68293   -9.44982   15.03241
       H    -6.58543   -5.74373   11.41115
       O    -5.94427   -6.22796   11.94254
      H1    -6.13746   -7.17669   12.08057
       H   -12.20666   -6.45569   11.16974
       O   -11.49131   -6.97404   11.59790
      H1   -11.02779   -7.43006   10.85509
       H    -7.42094   -4.20616   13.33388
       O    -6.63339   -4.51209   13.74275
      H1    -6.33078   -5.29356   13.21546
       H    -8.91956   -4.57590   12.44999
       O    -8.65914   -3.68208   12.12465
      H1    -8.25372   -3.81599   11.27979
       H   -12.06740   -7.83583   13.33313
       O   -12.54149   -7.63440   14.11327
      H1   -13.03643   -6.79053   13.92981
       H    -7.46460   -8.74019   11.14443
       O    -7.22935   -8.84628   12.07361
      H1    -7.79808   -8.33128   12.61853
       H    -9.61445   -5.98888   13.87944
       O    -9.18627   -6.13932   13.03537
      H1    -9.89654   -6.56297   12.52515
       H   -10.18207   -5.88149   16.43743
       O   -10.25158   -5.93941   15.47579
      H1   -11.20857   -6.07809   15.43423
       H    -9.64073   -8.34954    9.15952
       O   -10.54424   -7.98262    9.12072
      H1   -10.41347   -7.41813    8.32246

