30
frame 1 | Written by MDAnalysis XYZWriter (release 2.4.3)
       H    13.85960   -6.04001   -4.11736
       O    13.78057   -6.29746   -3.21682
      H1    14.55450   -6.66840   -2.78046
       H     7.41774  -10.12732   -2.11989
       O     8.34356  -10.35023   -1.78574
      H1     8.73644  -10.84801   -2.48895
       H    12.99385   -9.48552   -0.83433
       O    13.45099   -9.01884   -1.57569
      H1    14.41253   -9.17075   -1.39578
       H     9.53521   -6.85483   -1.19996
       O     9.38478   -7.23299   -2.11146
      H1     9.99367   -7.99606   -2.29972
       H    11.76931   -8.43066   -3.08225
       O    11.04743   -8.95565   -3.49446
      H1    11.18168   -9.80206   -3.07643
       H    13.06493  -10.36416   -5.27665
       O    13.69658  -10.08807   -4.57568
      H1    13.21817   -9.60593   -3.87189
       H    14.46809   -8.96969   -5.61153
       O    14.86458   -8.42395   -6.34419
      H1    14.50673   -7.49228   -6.23413
       H    12.46644   -5.40643   -0.59499
       O    12.71430   -6.30555   -0.40229
      H1    12.86598   -6.79084   -1.27419
       H     9.90717   -8.13743   -5.59807
       O     9.56962   -7.46031   -6.26359
      H1     9.46424   -6.63152   -5.82172
       H    10.97549  -12.62286   -1.83887
       O    11.21589  -11.97179   -2.53970
      H1    10.48655  -12.29284   -3.07088

