30
frame 1 | Written by MDAnalysis XYZWriter (release 2.4.3)
       H    -2.04796  -15.00362  -10.55048
       O    -2.94689  -15.07655  -10.16940
      H1    -3.33063  -14.19732  -10.12862
       H     0.63256  -11.98115   -6.31925
       O    -0.22835  -12.33995   -6.50846
      H1    -0.66289  -12.74792   -5.70409
       H     0.39261  -10.54931  -11.54336
       O     1.26277  -10.16127  -11.80497
      H1     1.70632  -10.81535  -12.30791
       H     3.91559  -11.61500   -8.37625
       O     3.34192  -11.35502   -9.09190
      H1     2.41896  -11.13037   -8.70431
       H    -0.80095  -13.68794  -11.26515
       O    -1.11664  -14.08259  -12.10154
      H1    -1.52321  -13.34662  -12.52373
       H    -1.99072  -10.49285  -10.91346
       O    -1.14883  -10.51180  -10.39259
      H1    -1.01562  -11.39966  -10.05295
       H     2.42215  -13.55804  -11.16895
       O     2.53571  -13.55622  -10.22743
      H1     2.87853  -12.68182  -10.06571
       H    -1.14555   -9.94452   -8.25689
       O    -1.46728  -10.00309   -7.34049
      H1    -1.10081  -10.80554   -7.02232
       H     1.02813  -15.95496   -7.55388
       O     0.09033  -15.64539   -7.69043
      H1    -0.19932  -16.08384   -8.48737
       H     1.00232  -13.02602   -9.47177
       O     0.11581  -12.69412   -9.33291
      H1    -0.20622  -13.10496   -8.51045

