30
frame 1 | Written by MDAnalysis XYZWriter (release 2.4.3)
       H    -6.92956    5.66922  -17.85782
       O    -6.22968    5.56755  -17.21147
      H1    -5.35238    5.30413  -17.65901
       H    -5.83229    7.28556  -17.21175
       O    -5.77125    8.23996  -17.40152
      H1    -5.50319    8.65791  -16.56879
       H    -0.94583    7.65428  -17.92272
       O    -0.79095    8.00615  -17.03855
      H1    -0.95899    8.97256  -17.05724
       H    -0.17440    3.90944  -18.24322
       O     0.16259    4.19521  -19.17349
      H1     1.05463    4.51348  -19.06594
       H    -5.66389    2.15351  -18.77326
       O    -4.78380    2.29004  -18.46351
      H1    -4.81770    2.03177  -17.54025
       H    -3.83874    5.33001  -18.91675
       O    -3.73820    4.78396  -18.12073
      H1    -3.95570    3.82251  -18.27484
       H    -3.22177    4.56034  -16.18810
       O    -3.45991    4.52012  -15.23363
      H1    -2.60162    4.41744  -14.80472
       H    -6.37745    4.06749  -16.07496
       O    -6.60888    3.15482  -15.85495
      H1    -7.57931    2.98864  -16.11462
       H    -2.93733    1.67299  -15.84816
       O    -3.81957    1.99407  -15.66616
      H1    -3.73029    2.87606  -15.33505
       H    -2.11494    6.72122  -19.42294
       O    -1.15341    6.63046  -19.42267
      H1    -0.91457    5.70675  -19.40429

