30
frame 1 | Written by MDAnalysis XYZWriter (release 2.4.3)
       H    11.71161  -12.80069   -8.95290
       O    11.12010  -13.28549   -8.34985
      H1    11.12694  -14.18565   -8.71547
       H    13.24782  -19.32885   -8.13065
       O    13.65778  -19.15445   -8.98958
      H1    13.86589  -18.16924   -9.15400
       H    11.64277  -15.14727   -6.03082
       O    12.09089  -15.95955   -6.24705
      H1    11.70047  -16.20563   -7.10864
       H    13.51807  -14.77015   -6.23596
       O    14.42817  -14.46470   -6.19821
      H1    14.43660  -13.81161   -5.45813
       H    12.20948  -16.31810   -9.61875
       O    11.40193  -16.05425   -9.14205
      H1    10.71775  -16.46642   -9.67176
       H    14.65750  -14.09670   -8.07869
       O    14.45778  -14.29781   -8.98859
      H1    13.95448  -13.57612   -9.26637
       H    18.35276  -16.05667   -8.49734
       O    18.13670  -15.80623   -9.41518
      H1    18.96333  -15.43034   -9.71015
       H    12.61844  -14.83922  -11.83212
       O    11.93112  -15.34312  -12.25487
      H1    12.31060  -16.21680  -12.29687
       H    16.72433  -17.68006  -12.06741
       O    15.82335  -18.01424  -11.93751
      H1    16.03246  -18.91752  -11.57073
       H    14.40256  -15.84340   -9.61167
       O    14.28979  -16.68607  -10.10269
      H1    15.09301  -17.04447  -10.56304

