30
frame 2 | Written by MDAnalysis XYZWriter (release 2.4.3)
       H    18.22302  -17.32452   -7.10468
       O    18.41565  -16.67277   -6.42065
      H1    18.71013  -17.16480   -5.63965
       H    15.96558  -16.28835   -5.18278
       O    15.77836  -16.99336   -4.54975
      H1    15.90554  -17.81675   -5.02910
       H    14.77711  -15.08088   -6.40983
       O    15.66748  -14.68864   -6.30668
      H1    15.54715  -13.79109   -6.00147
       H    19.14398  -13.04193   -9.67275
       O    19.19803  -13.23937  -10.63496
      H1    19.54904  -14.19230  -10.64606
       H    15.06230  -13.63484   -8.43077
       O    14.33101  -13.64199   -8.96374
      H1    14.17504  -12.78318   -9.35539
       H    17.39031  -15.94961   -9.56616
       O    17.45535  -16.56833  -10.28673
      H1    18.34244  -16.52623  -10.61128
       H    18.86245  -13.22955   -4.89588
       O    18.31580  -12.63884   -4.39639
      H1    17.61770  -13.03614   -3.78226
       H    18.24766  -11.01560   -7.82301
       O    18.52289  -11.97100   -7.81255
      H1    17.80634  -12.34426   -7.37666
       H    16.25936  -16.05160   -3.05314
       O    16.11898  -15.91088   -2.09142
      H1    15.30787  -16.37837   -1.89110
       H    17.54319  -18.17606   -9.37868
       O    17.76913  -18.58095   -8.50720
      H1    17.02260  -19.20348   -8.28646

