30
frame 2 | Written by MDAnalysis XYZWriter (release 2.4.3)
       H    11.06149  -14.01108    3.53510
       O    11.77213  -14.41027    4.09271
      H1    11.78520  -15.34818    3.85289
       H     9.47671  -14.08818    5.95495
       O    10.30646  -14.13020    6.36940
      H1    10.97115  -14.38967    5.68871
       H    12.27197  -16.11609    8.94574
       O    12.60601  -16.63684    8.17664
      H1    12.88536  -17.46708    8.49546
       H     7.92129  -13.81583    4.95372
       O     7.58853  -14.23571    5.78208
      H1     6.99680  -14.84361    5.32048
       H     8.86143  -12.35255    3.73302
       O     8.86873  -13.30842    3.54004
      H1     8.30049  -13.37252    2.75723
       H     8.39320  -17.95028    4.46817
       O     8.77068  -17.11176    4.59816
      H1     9.19762  -17.14748    5.48047
       H     9.95338  -15.81733    6.96228
       O    10.12334  -16.76327    6.95822
      H1    11.05994  -16.86833    7.22196
       H     6.51030  -14.02770    7.40191
       O     5.90099  -14.12903    8.17210
      H1     5.57928  -15.04691    8.20334
       H    10.49081  -12.42851    9.07824
       O    11.12067  -12.32636    8.34643
      H1    10.89503  -12.96634    7.64903
       H    10.25259   -8.98627    8.30419
       O     9.69788   -9.80741    8.23712
      H1    10.34098  -10.54150    8.04461

