30
frame 2 | Written by MDAnalysis XYZWriter (release 2.4.3)
       H    -4.75844  -11.55984  -15.73784
       O    -4.25963  -12.37374  -15.37962
      H1    -3.78703  -12.83481  -16.12569
       H    -1.98226  -11.48948  -18.43003
       O    -1.10001  -11.70082  -18.12265
      H1    -0.57805  -11.80815  -18.89333
       H     1.91449  -12.42335  -17.05237
       O     2.48626  -11.81324  -17.51517
      H1     2.76127  -11.20068  -16.82862
       H     1.52710  -14.67988  -17.29592
       O     2.00501  -15.24897  -17.93341
      H1     2.92116  -14.93942  -18.07802
       H    -2.31071  -13.50597  -17.81631
       O    -3.00194  -14.06519  -17.40342
      H1    -2.55409  -14.95969  -17.40281
       H     0.23070  -14.39492  -15.70022
       O     0.65000  -13.67388  -16.25028
      H1    -0.12275  -13.23084  -16.63352
       H    -4.16859  -10.50389  -18.10108
       O    -3.37724  -10.01139  -17.81602
      H1    -3.67437   -9.86587  -16.87768
       H    -0.00026  -10.09571  -18.54319
       O     0.81976   -9.60788  -18.72830
      H1     1.46422  -10.16066  -18.25851
       H    -3.33009   -8.13926  -18.33460
       O    -3.16526   -7.20813  -18.38333
      H1    -2.49364   -7.13356  -19.06016
       H    -1.36337  -10.82692  -14.79963
       O    -0.49644  -10.62120  -15.19114
      H1    -0.56511  -10.93301  -16.08983

