30
frame 2 | Written by MDAnalysis XYZWriter (release 2.4.3)
       H     3.33044   -3.16217   11.35456
       O     3.90873   -3.57971   12.01610
      H1     3.22299   -3.98680   12.58521
       H     7.56170   -2.42683   11.05676
       O     6.91391   -1.99640   10.46650
      H1     6.53451   -2.77680   10.01198
       H     5.41220   -3.81671    8.15913
       O     5.87723   -4.10808    8.97755
      H1     5.24582   -4.48401    9.58227
       H     4.49813   -3.42799   14.81312
       O     5.46005   -3.39929   14.74572
      H1     5.63317   -3.17619   13.79862
       H     7.20728   -5.81461   12.88063
       O     7.62595   -5.90894   12.04981
      H1     7.99119   -6.77629   12.09192
       H     3.76439   -6.95333   10.05034
       O     3.13171   -7.45388    9.59406
      H1     2.28310   -7.07949    9.78624
       H     4.61412   -5.15039   11.45008
       O     5.04620   -5.99468   11.20902
      H1     6.00716   -5.91358   11.25511
       H     4.42652   -7.23009   12.83238
       O     4.35687   -7.37870   13.79601
      H1     4.08925   -8.28622   13.94366
       H     1.29078   -5.40304   12.04205
       O     1.41941   -4.82347   12.80335
      H1     1.49265   -5.40893   13.56062
       H     5.46923   -6.56209   14.59440
       O     6.29046   -6.06782   14.84792
      H1     6.06355   -5.12376   14.89927

