30
frame 2 | Written by MDAnalysis XYZWriter (release 2.4.3)
       H   -13.30284    3.56428   17.01633
       O   -12.40353    3.76489   16.66042
      H1   -11.84556    3.36234   17.37031
       H   -14.60717   -0.27621   15.13207
       O   -13.65909   -0.48734   15.08884
      H1   -13.54454   -0.82319   14.20435
       H   -16.60192    2.60152   15.10923
       O   -15.78721    3.01534   14.71650
      H1   -15.42193    2.51785   14.02639
       H   -13.00936   -0.12013   19.07951
       O   -13.85619    0.28534   19.08320
      H1   -14.54584   -0.37417   19.27812
       H   -14.78780    3.28748   18.79986
       O   -14.72290    2.71867   18.06782
      H1   -14.22171    1.93023   18.41101
       H   -10.16299   -1.12834   19.57571
       O   -10.86886   -0.42597   19.51386
      H1   -11.36156   -0.77889   18.77285
       H   -10.50347    2.05793   19.22032
       O   -10.89238    2.77619   18.68933
      H1   -10.98307    3.54773   19.27443
       H   -12.78718   -1.44057   16.55059
       O   -12.33309   -1.91026   17.26245
      H1   -11.78532   -2.59383   16.79769
       H   -17.87146    3.13032   18.75676
       O   -17.34473    2.43608   18.32304
      H1   -16.36835    2.71176   18.09199
       H   -12.22091    2.43446   15.20170
       O   -12.06378    1.75320   14.56839
      H1   -12.50933    0.97209   14.91853

