30
frame 2 | Written by MDAnalysis XYZWriter (release 2.4.3)
       H     6.53351   10.34551    2.71839
       O     7.11504    9.69358    2.20376
      H1     6.49783    9.50378    1.46673
       H    11.48837    8.15843   -1.34906
       O    11.61165    9.04153   -0.99035
      H1    10.86767    9.19442   -0.39160
       H     8.26072    9.14282   -1.73823
       O     7.46826    9.22681   -2.27318
      H1     7.64576    9.68908   -3.18059
       H     9.90654    8.48853    4.09448
       O    10.14669    7.57834    4.24871
      H1    10.33343    7.30307    3.31684
       H     8.76995    9.45373    0.95353
       O     9.06439    9.47732    0.03593
      H1     8.73798   10.30381   -0.24816
       H     9.46974   10.74009    4.42427
       O     9.43079   10.11005    3.70384
      H1     8.54208    9.96024    3.40815
       H     4.91101    8.43057   -0.16477
       O     5.78752    8.77732   -0.12576
      H1     5.92770    9.21679   -0.97727
       H     7.30936    7.37370    0.42894
       O     7.80465    6.74272    0.94616
      H1     7.77756    5.99037    0.37874
       H     9.90965    6.98448    1.01516
       O    10.53484    6.60038    1.64023
      H1    11.48107    6.87295    1.50374
       H     9.63005   13.15684    3.00131
       O     8.99832   12.83655    2.35933
      H1     9.12222   11.85223    2.47135

