30
frame 2 | Written by MDAnalysis XYZWriter (release 2.4.3)
       H    16.01230    8.38782   -7.00148
       O    15.98260    9.30293   -7.34758
      H1    15.33205    9.76127   -6.81579
       H    12.46930    3.86095   -6.54301
       O    12.36027    3.92187   -5.55530
      H1    13.18715    4.43177   -5.30425
       H    15.06432    9.91818   -4.10978
       O    15.59321   10.73480   -4.24773
      H1    15.68773   11.12757   -3.37842
       H    15.98555    2.84646   -3.13512
       O    15.20231    3.15693   -3.63843
      H1    15.51829    4.00090   -4.04972
       H    15.36160    4.53936   -5.98170
       O    15.85406    5.05581   -5.33582
      H1    16.50655    5.67271   -5.73915
       H    18.35909    6.92286   -6.69011
       O    17.68071    6.88823   -5.98834
      H1    18.09262    7.15144   -5.16904
       H    12.76467    9.56547   -5.11610
       O    13.37707    9.35052   -5.80995
      H1    13.67756    8.47716   -5.64208
       H    14.11132    9.18533   -2.57924
       O    14.75867    8.49100   -2.61391
      H1    14.64000    8.06665   -1.73478
       H    14.89962    6.35959   -4.68035
       O    13.98531    6.74469   -4.58667
      H1    14.12943    7.45700   -3.94972
       H    14.13880    4.51284   -2.31107
       O    13.46523    4.85107   -1.75828
      H1    13.34473    4.36181   -0.91307

