30
frame 0 | Written by MDAnalysis XYZWriter (release 2.4.3)
       H    -7.39464   -8.69981  -16.54436
       O    -7.44619   -9.49237  -17.10123
      H1    -7.50155   -9.28217  -18.03562
       H    -4.60491  -11.55554  -15.55230
       O    -4.14332  -12.30393  -15.23847
      H1    -3.72839  -12.66640  -16.05155
       H    -4.52783   -9.46897  -16.08652
       O    -4.89256  -10.01365  -16.79549
      H1    -5.83622   -9.74599  -16.92451
       H    -5.07211  -13.80101  -15.78834
       O    -5.76109  -14.44318  -15.94154
      H1    -6.01722  -14.32579  -16.85321
       H    -6.88614  -13.57278  -14.79239
       O    -7.49040  -13.11574  -14.20429
      H1    -6.92765  -12.62584  -13.57768
       H    -2.12335  -13.08028  -17.42650
       O    -3.04910  -13.34994  -17.38309
      H1    -3.21523  -14.22376  -17.79474
       H    -2.92042  -10.47345  -19.31237
       O    -2.59731   -9.94882  -18.52137
      H1    -3.41615  -10.03836  -17.99609
       H    -6.42681  -12.78148  -18.55057
       O    -6.93788  -12.52036  -17.78322
      H1    -6.43447  -11.86755  -17.30276
       H    -3.49683  -15.89160  -19.61747
       O    -3.97275  -15.82483  -18.75609
      H1    -3.70938  -16.53752  -18.16989
       H    -8.72359  -11.86971  -17.80307
       O    -9.53270  -11.33109  -17.79652
      H1    -9.24343  -10.55807  -17.39018

