30
frame 2 | Written by MDAnalysis XYZWriter (release 2.4.3)
       H   -18.10907  -15.68188  -10.53054
       O   -18.97805  -15.70706  -10.91206
      H1   -18.74119  -15.91509  -11.84946
       H   -15.42097  -18.14522  -15.61614
       O   -14.95417  -18.40229  -14.81423
      H1   -15.01199  -19.33631  -14.69899
       H   -19.73121  -12.93120  -14.91659
       O   -19.95794  -13.81506  -14.61837
      H1   -19.25016  -14.08283  -14.00651
       H   -17.41299  -18.63530  -18.59480
       O   -17.62420  -19.18168  -19.41696
      H1   -17.36543  -18.54898  -20.13608
       H   -16.93584  -15.16858  -13.45101
       O   -17.88664  -15.41579  -13.62887
      H1   -17.83232  -16.16820  -14.27695
       H   -13.81540  -14.40414  -15.62377
       O   -14.69250  -14.91418  -15.58624
      H1   -15.40322  -14.25547  -15.83740
       H   -17.04108  -17.46499  -16.56746
       O   -16.20897  -17.68195  -17.02751
      H1   -15.75577  -16.97621  -17.48476
       H   -14.81370  -13.48901  -13.04916
       O   -15.10619  -14.42895  -12.96666
      H1   -14.97890  -14.72176  -13.90407
       H   -18.95395  -18.24575  -14.94436
       O   -18.52785  -17.50314  -15.49610
      H1   -19.22138  -16.88520  -15.78834
       H   -14.07290  -17.19655  -13.47727
       O   -13.61879  -16.68415  -12.78597
      H1   -14.06803  -15.83586  -12.79770

