30
frame 2 | Written by MDAnalysis XYZWriter (release 2.4.3)
       H   -15.85635  -17.26913   16.73917
       O   -15.44909  -17.50605   15.88062
      H1   -16.04091  -18.12513   15.43914
       H   -17.93661  -15.98333   10.10806
       O   -17.53886  -15.82380   11.00271
      H1   -17.82240  -14.92122   11.09662
       H   -14.21401  -15.26194   12.68965
       O   -14.32970  -14.70185   13.48034
      H1   -15.16292  -14.91899   13.79018
       H   -19.38181  -19.09471    8.82735
       O   -18.48880  -19.36932    8.99303
      H1   -18.51949  -19.52933    9.97972
       H   -20.26908  -19.37250   14.76582
       O   -20.02835  -19.55830   13.85749
      H1   -19.17082  -19.96959   13.70052
       H   -17.10480  -13.27104    9.44623
       O   -17.70519  -13.09291   10.19164
      H1   -17.48818  -12.21887   10.47693
       H   -18.51511  -17.57878    8.78848
       O   -18.84390  -16.68571    8.59853
      H1   -19.80163  -16.69070    8.74131
       H   -18.64993  -17.07286   12.05485
       O   -19.50038  -17.22347   12.47570
      H1   -19.41745  -18.06666   12.89916
       H   -15.74036  -16.05677   11.27500
       O   -14.81087  -16.32458   11.25667
      H1   -14.91645  -17.23545   11.41093
       H   -17.31260  -15.17451   15.03742
       O   -16.42206  -14.93200   15.18724
      H1   -15.95212  -15.72490   15.34114

