30
frame 2 | Written by MDAnalysis XYZWriter (release 2.4.3)
       H    -0.71873    9.81902    7.93916
       O    -1.67363    9.78370    8.13940
      H1    -1.96120    8.92697    7.90167
       H    -2.31799   13.15381    3.52280
       O    -2.20471   14.09849    3.31726
      H1    -3.09107   14.35451    3.05947
       H    -2.09726   14.90316    8.41447
       O    -2.78682   15.49889    8.30891
      H1    -3.00991   15.41147    7.34147
       H    -4.16374   10.62749   10.11626
       O    -3.21662   10.77555   10.19246
      H1    -2.65391   10.33465    9.53691
       H    -5.46717   12.04539    3.65030
       O    -4.99035   12.00178    2.80873
      H1    -5.59288   12.37417    2.14036
       H    -1.44827   12.85154    7.49614
       O    -0.74362   13.25538    8.06736
      H1     0.09366   13.05301    7.65863
       H    -2.11021   11.77494    5.20805
       O    -1.57740   11.66006    4.42029
      H1    -1.76566   10.69607    4.20417
       H    -2.70168   11.51493    7.20157
       O    -3.08804   12.22895    6.62343
      H1    -3.99576   11.91393    6.48617
       H    -4.47112   15.34100    5.40079
       O    -3.47766   15.38673    5.48027
      H1    -3.08510   14.57175    5.04483
       H    -6.11275   12.32108    5.99367
       O    -5.69085   11.66073    5.41679
      H1    -6.46947   11.01881    5.30170

