30
frame 3 | Written by MDAnalysis XYZWriter (release 2.4.3)
       H   -12.50889  -17.63295  -16.05942
       O   -12.12436  -17.59310  -16.96254
      H1   -11.40173  -18.24164  -16.90155
       H   -10.02486  -15.36583  -15.82424
       O   -10.21097  -14.61473  -15.30929
      H1    -9.50343  -13.95461  -15.26649
       H    -8.05012  -17.19277  -15.30696
       O    -7.90628  -17.79219  -14.58205
      H1    -7.11054  -18.21918  -14.92391
       H   -11.69516  -14.51061  -19.81578
       O   -10.78304  -14.10521  -19.83057
      H1   -10.65331  -13.31819  -19.26892
       H   -13.73501  -18.48023  -18.64293
       O   -13.52006  -19.03085  -19.36588
      H1   -13.78859  -18.50867  -20.22426
       H   -12.80227  -16.32370  -20.32590
       O   -13.00306  -15.80541  -19.52300
      H1   -12.60308  -16.19526  -18.77443
       H    -9.47083  -16.61979  -18.67547
       O    -9.85039  -16.51020  -19.54487
      H1   -10.23217  -15.59500  -19.57664
       H    -8.87960  -17.78855  -17.15383
       O    -8.71912  -16.79902  -17.17973
      H1    -7.76426  -16.72198  -17.40423
       H    -5.79887  -16.96831  -17.89372
       O    -6.06958  -16.06324  -17.84410
      H1    -5.99176  -15.84279  -16.91685
       H    -6.02189  -14.43610  -18.71429
       O    -5.98713  -13.62239  -19.23086
      H1    -5.03681  -13.54806  -19.33311

