30
frame 2 | Written by MDAnalysis XYZWriter (release 2.4.3)
       H     3.33044   -3.16217   11.35456
       O     3.90873   -3.57971   12.01610
      H1     3.22299   -3.98680   12.58521
       H     7.56170   -2.42683   11.05676
       O     6.91391   -1.99640   10.46650
      H1     6.53451   -2.77680   10.01198
       H     5.41220   -3.81671    8.15913
       O     5.87723   -4.10808    8.97755
      H1     5.24582   -4.48401    9.58227
       H     8.06161   -4.78011    8.71641
       O     8.79229   -5.18692    8.20276
      H1     8.34893   -5.75949    7.56484
       H     6.76399   -0.46740    6.50013
       O     6.52711    0.35262    6.92963
      H1     7.00637    0.36266    7.76609
       H     8.70200   -0.63062    8.34676
       O     8.17849   -0.08315    8.97063
      H1     7.80646   -0.75340    9.56759
       H     8.53560   -4.27350   12.27184
       O     8.80911   -3.39532   11.98742
      H1     9.39970   -3.07562   12.71173
       H     4.61412   -5.15039   11.45008
       O     5.04620   -5.99468   11.20902
      H1     6.00716   -5.91358   11.25511
       H     5.84053   -0.41229   10.74619
       O     5.25674    0.34230   10.54067
      H1     4.42024    0.32200   11.10507
       H    10.05405   -4.68778    9.49303
       O    10.56420   -4.62481   10.30978
      H1     9.94395   -4.03642   10.82122

