30
frame 2 | Written by MDAnalysis XYZWriter (release 2.4.3)
       H   -10.19920    5.48085   13.39178
       O   -11.00834    5.64221   13.90635
      H1   -11.43208    6.46094   13.54652
       H    -7.02042   10.42431   14.53310
       O    -7.00842   11.06146   15.26950
      H1    -7.35773   10.64854   16.04024
       H   -12.62089    8.06581   11.80645
       O   -12.60396    8.34253   10.87023
      H1   -13.49846    8.53804   10.61985
       H   -11.36226   10.97731   16.16383
       O   -11.07276   11.70969   15.55997
      H1   -11.85363   11.99705   15.14493
       H   -10.10142   12.11271   10.57898
       O   -10.83050   12.68494   10.38056
      H1   -10.68265   13.06831    9.47650
       H    -8.98361    8.37376   14.95199
       O    -8.76688    7.62788   15.55364
      H1    -9.61875    7.38861   15.94687
       H    -9.91980    9.92533   13.06919
       O   -10.14222    9.60578   13.96288
      H1   -10.43441   10.43345   14.31528
       H    -5.97968    8.87893   13.60785
       O    -6.07067    9.57045   12.97889
      H1    -5.14921    9.92641   12.84398
       H   -12.84318    8.29394   14.26194
       O   -12.19383    7.97494   13.62420
      H1   -11.50087    8.68988   13.61263
       H    -9.79240    9.44863   10.42521
       O   -10.37146   10.02469   10.96303
      H1   -11.25585    9.53108   11.07367

