30
frame 3 | Written by MDAnalysis XYZWriter (release 2.4.3)
       H   -16.18007  -17.18089   16.29217
       O   -15.77474  -17.12081   15.43599
      H1   -15.98541  -17.77325   14.76096
       H   -17.85911  -15.78492   11.22624
       O   -17.25503  -15.71427   12.00359
      H1   -16.74744  -14.93560   11.85785
       H   -14.48185  -13.92330    9.75909
       O   -15.28013  -14.50597    9.86870
      H1   -14.87223  -15.18995   10.44511
       H   -19.28603  -14.82627   14.53327
       O   -19.10945  -14.13678   15.17909
      H1   -19.80680  -14.23550   15.83419
       H   -14.73016  -15.49646   12.72626
       O   -14.55285  -14.67717   13.22945
      H1   -15.19765  -14.39246   13.85816
       H   -17.08645  -13.41505    9.17302
       O   -17.49347  -12.54335    9.29222
      H1   -16.89916  -12.08866    9.94709
       H   -19.16252  -17.03271    9.84461
       O   -19.08741  -16.11547    9.57152
      H1   -19.96048  -15.73219    9.72848
       H   -18.33856  -16.19716   13.33475
       O   -19.19172  -16.49644   13.80036
      H1   -18.97118  -17.34531   14.20838
       H   -15.71757  -16.64852   11.66689
       O   -14.77928  -16.78327   11.66549
      H1   -14.54154  -17.76024   11.73461
       H   -17.46383  -14.43952   15.21781
       O   -16.50154  -14.53278   15.23527
      H1   -16.21438  -15.39161   15.40469

