30
frame 0 | Written by MDAnalysis XYZWriter (release 2.4.3)
       H   -14.09285  -17.92423  -15.00881
       O   -13.56326  -17.90992  -15.80780
      H1   -12.66986  -18.22766  -15.55949
       H    -9.80908  -15.11419  -16.89010
       O   -10.47930  -14.44265  -16.64703
      H1   -10.06904  -13.89852  -15.92131
       H   -14.68351  -14.71921  -17.50512
       O   -14.88897  -15.36227  -18.20644
      H1   -13.96624  -15.51250  -18.58490
       H   -11.78535  -16.07927  -13.83678
       O   -10.85621  -15.76924  -14.04441
      H1   -10.91510  -15.38874  -14.92908
       H   -14.39274  -18.98450  -17.04791
       O   -14.78720  -19.82232  -17.29611
      H1   -15.05655  -19.81197  -18.23417
       H   -11.35612  -15.62506  -18.59649
       O   -12.28456  -15.95565  -18.52193
      H1   -12.52029  -16.05681  -17.59882
       H    -8.52654  -17.15424  -17.26336
       O    -8.63780  -16.56558  -16.48521
      H1    -7.91336  -16.68858  -15.86222
       H    -9.67610  -17.65605  -12.69375
       O    -8.90785  -18.14147  -13.05810
      H1    -8.39430  -17.49851  -13.56723
       H   -11.60298  -19.82648  -14.61810
       O   -10.78908  -19.35260  -14.85452
      H1   -10.53947  -18.84423  -14.08130
       H    -8.68056  -18.82923  -19.53248
       O    -8.81553  -18.85151  -18.57473
      H1    -9.73929  -19.05544  -18.41485

