30
frame 2 | Written by MDAnalysis XYZWriter (release 2.4.3)
       H     4.44435   13.25363   13.49292
       O     5.27921   12.69921   13.50999
      H1     5.61298   12.81411   12.58372
       H     8.16394   13.05594    7.92983
       O     7.40675   13.62699    7.81390
      H1     6.82611   13.21964    7.17753
       H    12.38866   11.67130    7.88951
       O    11.48733   11.51444    8.10020
      H1    11.22057   12.16555    8.77585
       H     5.54296   13.65888   10.34002
       O     5.75063   12.82650   10.83262
      H1     4.87930   12.43068   10.90234
       H     7.36996   12.09545   10.22253
       O     8.12534   11.50929   10.12599
      H1     8.67064   11.83810   10.83468
       H     9.73753   12.82933   12.98087
       O     9.80583   12.26252   12.12929
      H1    10.42601   11.55731   12.36628
       H     6.13101   11.32041    5.37207
       O     6.13664   11.46019    6.31571
      H1     6.98639   11.05221    6.64292
       H     8.98068   10.49988    7.26754
       O     8.22718   10.13753    7.76693
      H1     8.16504   10.77127    8.52474
       H    11.14677   14.30030   10.05295
       O    11.29740   13.38470   10.17360
      H1    10.70416   13.09550   10.88332
       H     7.01898    9.48020   12.30234
       O     7.60912    9.18215   11.56195
      H1     7.86590    9.96269   11.09412

