30
frame 2 | Written by MDAnalysis XYZWriter (release 2.4.3)
       H    12.90043    3.98408    1.57235
       O    13.32655    3.76932    0.74032
      H1    14.17501    3.30995    0.94207
       H    16.69053    1.42061    2.51317
       O    17.54436    1.71402    2.32149
      H1    18.00844    1.42253    3.19400
       H    16.36395   -1.10967   -2.59750
       O    17.22093   -1.31211   -2.16885
      H1    17.45741   -0.58096   -1.60572
       H    15.12539    1.35888    0.72290
       O    15.42917    1.97339    0.04890
      H1    16.37765    1.90707    0.00166
       H    16.57594    0.32980    5.08124
       O    16.93237   -0.35756    4.44781
      H1    16.36395   -0.34430    3.71065
       H    14.40913    1.31165   -1.38453
       O    14.18095    0.58883   -2.03264
      H1    13.43592    0.09884   -1.58116
       H    12.23370    1.79302    0.15672
       O    11.67385    1.48927    0.87406
      H1    11.36251    2.29874    1.27432
       H    17.87853    0.60406    0.61103
       O    18.00410    0.80286   -0.33489
      H1    18.81689    1.35503   -0.39114
       H    15.05345   -0.78270    0.47552
       O    15.08015   -0.35882    1.37062
      H1    14.38907   -0.85891    1.82847
       H    17.69553    3.38004    2.40720
       O    17.80795    4.32984    2.53038
      H1    17.71514    4.41716    3.49884

