30
frame 4 | Written by MDAnalysis XYZWriter (release 2.4.3)
       H    -9.22940    8.97494    7.26130
       O    -8.37643    8.62618    7.36424
      H1    -8.50898    7.98235    8.09070
       H   -10.27372    6.28132    5.20029
       O    -9.58102    6.23122    4.55048
      H1    -8.74620    6.49504    5.01216
       H    -5.63196    8.25335    4.00162
       O    -6.07645    8.56975    3.22984
      H1    -5.50621    9.33173    2.96736
       H    -7.27171    5.93124    5.87040
       O    -7.21551    6.83341    5.61001
      H1    -7.55058    7.28745    6.38296
       H    -5.18104    5.23496    8.06312
       O    -5.88932    4.95114    7.45482
      H1    -5.41702    4.59834    6.72165
       H    -9.03532    9.87004    3.08166
       O    -9.57052    9.08283    3.22556
      H1    -9.02927    8.27759    3.47462
       H    -9.08505    6.99380   10.28870
       O    -8.50014    6.84409    9.53023
      H1    -7.59023    7.07835    9.81844
       H    -7.15009    9.98000    6.53401
       O    -7.19046   10.88049    6.21419
      H1    -8.11054   11.07064    6.28679
       H    -5.25009    6.08225    2.32073
       O    -5.96183    5.72060    2.87194
      H1    -6.43083    6.46289    3.17845
       H    -4.26859    8.31932    6.41333
       O    -4.05549    8.49336    5.49202
      H1    -3.35605    9.19567    5.38810

