30
frame 4 | Written by MDAnalysis XYZWriter (release 2.4.3)
       H   -17.77392    6.38105    9.06358
       O   -17.43428    6.29810   10.01087
      H1   -18.16189    6.42438   10.63120
       H   -18.73549   11.25477    5.61321
       O   -18.83375   11.37547    6.55130
      H1   -18.18532   12.08770    6.69701
       H   -15.97525    5.32384   10.43342
       O   -15.26363    4.69795   10.29414
      H1   -15.48518    3.87925   10.74569
       H   -16.21501    7.77554   10.25555
       O   -15.40171    8.19406    9.90765
      H1   -15.04953    8.67891   10.66060
       H   -16.40008    9.44790    8.44591
       O   -17.23368    9.22517    8.01312
      H1   -17.45568    9.95532    7.46661
       H   -17.24282    7.52354    7.34761
       O   -17.41969    6.63978    7.12577
      H1   -18.41844    6.64809    6.96120
       H   -18.79222    8.78801    8.87850
       O   -19.68107    8.45762    9.09420
      H1   -19.60612    8.28780   10.02032
       H   -14.50408    7.06279    8.63491
       O   -14.01251    6.33775    8.17281
      H1   -14.11018    5.55227    8.78060
       H   -19.07271   12.47001   10.93944
       O   -18.79139   13.39529   10.78874
      H1   -18.97672   13.88555   11.60050
       H   -16.75352   12.78955    8.18534
       O   -15.98484   12.44007    8.61574
      H1   -15.44894   12.05052    7.89779

