30
frame 3 | Written by MDAnalysis XYZWriter (release 2.4.3)
       H    17.11740  -12.58671   -5.58742
       O    16.29004  -12.27526   -5.97171
      H1    16.40240  -11.31642   -6.14375
       H    18.62567   -8.94317   -8.29181
       O    18.21001   -9.75293   -7.99928
      H1    17.76235   -9.47394   -7.15780
       H    13.54824   -4.72234   -4.15316
       O    14.25373   -5.38802   -4.12345
      H1    13.99528   -6.17537   -4.66487
       H    12.35596   -8.82472   -9.37401
       O    12.28030   -7.86669   -9.14463
      H1    12.92778   -7.56935   -8.44797
       H    13.56553   -7.55358   -5.94061
       O    14.22304   -7.58050   -6.65896
      H1    14.43862   -6.66499   -6.97161
       H    17.70558   -6.95144   -6.80916
       O    18.37814   -6.42465   -7.22901
      H1    18.90744   -6.06824   -6.51373
       H    18.76241   -8.97280   -3.26225
       O    18.43394   -8.36579   -3.91312
      H1    18.31441   -7.54887   -3.38207
       H    16.87158   -7.31993  -10.08557
       O    15.91562   -7.47953  -10.32979
      H1    15.78682   -8.33483   -9.88655
       H    16.38019  -10.07393   -9.06126
       O    15.53414  -10.00115   -9.47017
      H1    15.67634   -9.94027  -10.42165
       H    15.70961   -8.67376   -6.29493
       O    16.48330   -9.22021   -6.13221
      H1    16.75422   -8.94358   -5.24122

