30
frame 3 | Written by MDAnalysis XYZWriter (release 2.4.3)
       H    -4.92343   11.32274  -13.68116
       O    -5.50503   11.77333  -13.00871
      H1    -6.15856   11.10028  -12.80261
       H    -3.71445   14.16251  -11.59994
       O    -4.27939   13.56520  -11.16253
      H1    -4.62853   12.94728  -11.80928
       H    -6.35726   14.77673  -15.32967
       O    -5.80440   14.73239  -16.13549
      H1    -5.66204   15.62302  -16.50914
       H    -6.30641   13.78016  -11.02519
       O    -7.17730   13.74990  -10.72920
      H1    -7.72718   14.37511  -11.21879
       H    -4.23260    8.95286  -13.92693
       O    -4.50722    9.62619  -14.58556
      H1    -5.45829    9.45835  -14.61250
       H    -1.11346   11.75949  -10.21360
       O    -2.05681   11.51049  -10.25728
      H1    -2.61454   12.26575  -10.38834
       H    -4.08612   13.84857  -15.12258
       O    -3.15915   13.86027  -15.35847
      H1    -2.75027   13.55081  -14.53023
       H    -6.80761   13.22552  -13.31988
       O    -7.13316   13.92143  -13.86288
      H1    -7.47316   14.60654  -13.26584
       H    -8.82319   11.61474  -15.36083
       O    -9.27152   11.99372  -14.61259
      H1    -8.74315   11.69822  -13.81020
       H    -7.89491   11.97762  -11.14804
       O    -7.98006   11.14961  -11.58012
      H1    -7.60924   10.48016  -10.99879

