30
frame 0 | Written by MDAnalysis XYZWriter (release 2.4.3)
       H     1.75525   10.14218   -1.23084
       O     2.00163    9.39613   -1.76212
      H1     2.54384    8.78137   -1.18330
       H     7.13919    9.58215   -4.64097
       O     6.91250   10.20297   -3.93355
      H1     6.04268   10.59515   -4.22263
       H     3.80373    7.65959   -5.57332
       O     3.23440    8.48061   -5.80091
      H1     2.45258    8.15942   -6.25435
       H     4.28764    6.36725   -4.02789
       O     4.10038    6.01321   -4.90994
      H1     3.17758    5.69974   -4.91149
       H     2.66339   12.15827   -6.62303
       O     2.78454   12.19771   -5.65390
      H1     1.94363   12.02302   -5.25549
       H     5.68135   10.93687   -8.21916
       O     5.34663   10.14735   -7.68398
      H1     4.51717    9.84103   -8.02432
       H     5.40436    7.42969   -2.54158
       O     4.44400    7.27456   -2.62590
      H1     3.90433    8.10024   -2.73496
       H     3.96875    9.74035   -4.73775
       O     4.09167   10.33467   -3.95560
      H1     3.72460   11.10620   -4.34055
       H     6.18309   12.89422   -7.22306
       O     5.44722   12.92082   -6.58407
      H1     5.06030   12.06493   -6.59576
       H     0.42904   12.16392   -3.60358
       O     0.37581   11.33718   -4.06709
      H1     1.05979   10.74410   -3.68753

