30
frame 0 | Written by MDAnalysis XYZWriter (release 2.4.3)
       H     8.20204  -11.01260   10.80171
       O     8.76839  -11.67326   10.39092
      H1     8.32338  -12.47501   10.70115
       H     7.84228  -17.81469   11.93522
       O     7.43271  -18.42469   11.31652
      H1     7.69595  -19.30844   11.57462
       H     4.55237  -14.18654   11.23734
       O     5.31617  -14.73835   11.49866
      H1     5.75434  -14.80846   10.61961
       H     4.51372  -12.73273    8.11635
       O     3.78653  -13.33445    7.84123
      H1     4.12882  -13.96420    7.26151
       H     7.32526  -17.12680    8.34727
       O     7.92409  -16.95258    9.06551
      H1     7.69418  -17.56015    9.77376
       H     7.28550  -12.63144   12.74099
       O     7.59861  -13.49890   12.39997
      H1     6.77809  -13.90912   12.23436
       H     1.98510  -15.15947   10.44572
       O     1.66437  -16.07753   10.25493
      H1     2.13336  -16.62711   10.89517
       H     6.56177  -14.28266    8.39698
       O     6.87555  -14.45387    9.28917
      H1     7.47199  -15.18853    9.03949
       H     1.49379  -13.24071    9.92951
       O     2.38592  -13.52154   10.23204
      H1     2.86555  -13.45097    9.40352
       H     4.72744  -15.61551   13.18838
       O     4.50147  -16.45253   13.64684
      H1     3.97410  -16.99187   13.06316

