30
frame 3 | Written by MDAnalysis XYZWriter (release 2.4.3)
       H   -15.43731  -12.07752   -0.41767
       O   -16.13059  -11.69752   -0.98756
      H1   -16.90012  -12.24738   -0.81354
       H   -15.96616   -7.33379    0.85463
       O   -15.16286   -7.46070    0.37993
      H1   -15.42069   -8.18209   -0.27074
       H   -15.90999   -8.87467    3.02315
       O   -15.37930   -9.49157    2.43688
      H1   -15.16350   -8.98205    1.67203
       H   -14.82962  -13.61931    1.04806
       O   -14.02126  -13.15239    0.63428
      H1   -13.80446  -12.54562    1.35876
       H   -19.36865  -12.88964   -0.61011
       O   -18.59835  -13.37088   -0.99707
      H1   -18.86238  -13.76222   -1.83515
       H   -16.65550  -10.01767   -0.97650
       O   -17.05339   -9.11648   -1.09269
      H1   -17.09609   -8.98101   -2.02264
       H   -13.90941   -9.05413   -2.35766
       O   -13.99482  -10.06696   -2.13689
      H1   -14.26948  -10.55395   -2.92051
       H   -18.13109  -14.94240    0.05079
       O   -18.13293  -15.59905    0.78002
      H1   -17.16739  -15.81361    0.86238
       H   -16.22580  -10.77238   -4.42887
       O   -15.73955  -11.48241   -4.07064
      H1   -16.13184  -11.93078   -3.29508
       H   -11.16966   -9.67593   -1.17462
       O   -11.81006  -10.08865   -0.60253
      H1   -12.62912  -10.19249   -1.15404

