30
frame 3 | Written by MDAnalysis XYZWriter (release 2.4.3)
       H    14.64468    5.59038   18.56198
       O    14.28705    5.20368   17.77421
      H1    14.46916    5.87065   17.09874
       H    12.75141    4.40305   17.88287
       O    11.91875    3.96665   18.18310
      H1    11.88034    3.13506   17.71969
       H    11.60453    7.24771   15.24543
       O    10.88394    7.28303   15.87488
      H1    10.79866    6.37975   16.23800
       H    14.74291    3.50236   13.63391
       O    14.55351    3.93606   14.46112
      H1    14.27674    3.23197   15.05158
       H     8.73468    4.32649   19.24239
       O     9.35827    3.64512   18.89286
      H1    10.21076    4.06725   18.72060
       H    14.79432    2.71965   18.66943
       O    15.54316    2.28267   19.16942
      H1    15.39835    1.36564   18.94972
       H    13.27868   -0.71261   18.78767
       O    12.57191   -0.26397   18.30430
      H1    11.74945   -0.73394   18.52692
       H    10.23588    1.93800   17.94684
       O    10.78117    1.64659   17.20555
      H1    11.53214    1.12670   17.52758
       H    14.58154    1.43487   16.52024
       O    13.94610    2.14391   16.28097
      H1    13.41415    1.69253   15.57941
       H     9.70837   -0.02628   14.14754
       O     9.69797   -0.41085   15.05899
      H1    10.06808    0.31615   15.60546

