30
frame 3 | Written by MDAnalysis XYZWriter (release 2.4.3)
       H    11.24980    6.67031  -19.83725
       O    11.52899    6.12173  -19.12097
      H1    11.96048    5.36533  -19.52278
       H    13.66142    2.63928  -17.51418
       O    14.60465    2.82520  -17.55142
      H1    14.79754    2.79482  -18.49184
       H    13.17978    8.48004  -15.34886
       O    13.28550    9.26442  -15.88790
      H1    13.16382    8.99936  -16.78422
       H    12.53944    5.37919  -14.12296
       O    12.86792    4.65809  -13.51630
      H1    12.59076    4.90490  -12.63699
       H    11.65470    6.17705  -16.38118
       O    12.32702    6.40129  -15.79363
      H1    13.18747    6.06757  -16.03868
       H    15.04887    4.80949  -16.51649
       O    14.85482    5.75343  -16.53852
      H1    15.00625    5.90864  -17.43745
       H    14.14285    3.56535  -14.19566
       O    14.88940    3.16259  -14.64509
      H1    14.73473    3.03457  -15.57224
       H    11.87502    1.81808  -17.01509
       O    11.92375    2.58335  -16.46453
      H1    11.14402    2.79922  -15.90420
       H    15.98047    6.92419  -15.24619
       O    16.70139    6.87041  -14.60317
      H1    16.69601    7.70037  -14.06184
       H    11.85745    9.12479  -18.60825
       O    12.67207    8.54788  -18.54153
      H1    12.37094    7.65673  -18.32874

