30
frame 0 | Written by MDAnalysis XYZWriter (release 2.4.3)
       H    14.04359  -17.57453  -16.18017
       O    13.20759  -17.17373  -15.97390
      H1    12.78264  -17.66464  -15.20281
       H    15.93054  -14.05180  -15.60417
       O    15.97551  -13.16268  -15.97501
      H1    16.79375  -12.75110  -15.65961
       H    14.37968  -15.90484  -15.10436
       O    15.03628  -15.38293  -14.61930
      H1    15.57895  -16.09137  -14.14820
       H    17.91532  -14.82566  -19.28935
       O    18.81118  -14.52030  -19.37085
      H1    18.83435  -13.57558  -19.46946
       H    15.88821  -13.72188  -18.32455
       O    15.85916  -14.49954  -18.86855
      H1    15.52703  -15.17633  -18.27529
       H    11.55611  -16.01643  -18.21621
       O    12.31610  -16.42565  -18.67882
      H1    12.68196  -16.99828  -17.98697
       H    18.34782  -17.16197  -17.59210
       O    17.98693  -18.02882  -17.89334
      H1    18.15021  -18.59978  -17.10419
       H    18.78216  -14.64720  -16.18037
       O    18.72743  -15.39509  -16.82918
      H1    18.70835  -14.90084  -17.70056
       H    16.13353  -18.34512  -12.36648
       O    15.33419  -18.01806  -12.84403
      H1    15.40105  -18.49839  -13.67054
       H    16.59076  -17.31181  -17.47774
       O    15.64900  -17.10539  -17.34845
      H1    15.30204  -17.82093  -17.89296

