30
frame 4 | Written by MDAnalysis XYZWriter (release 2.4.3)
       H   -17.01154   -4.34889   13.02855
       O   -16.45436   -3.61404   13.29409
      H1   -16.70125   -3.52281   14.23370
       H   -13.95667   -0.68782   14.88599
       O   -13.18199   -0.93147   14.46374
      H1   -13.36092   -1.50716   13.70523
       H   -16.68972   -1.88353   12.56400
       O   -17.15099   -1.11083   12.23995
      H1   -18.01458   -1.44106   11.96573
       H   -17.11183   -0.67975   13.86226
       O   -16.81118   -0.59510   14.81046
      H1   -16.98207   -1.47704   15.20836
       H   -17.97665   -2.96191   19.82764
       O   -18.55269   -2.18795   19.71560
      H1   -19.04207   -2.38496   18.91858
       H   -14.49215   -0.93637   11.17642
       O   -15.11036   -0.35750   10.68447
      H1   -15.93583   -0.54543   11.17302
       H   -15.94659   -2.86786   16.61975
       O   -16.77379   -2.88536   16.02920
      H1   -17.46069   -3.27483   16.54469
       H   -17.72580    1.84564   16.48942
       O   -17.92056    1.76990   15.53359
      H1   -17.48561    0.91211   15.30279
       H   -14.15801   -3.86606   17.17821
       O   -14.47232   -3.02163   17.53643
      H1   -13.77093   -2.39319   17.53777
       H   -13.73888   -4.71858   14.74323
       O   -14.01532   -4.58312   13.81250
      H1   -14.84445   -4.11303   13.82819

