30
frame 3 | Written by MDAnalysis XYZWriter (release 2.4.3)
       H   -17.53032   -2.14820  -12.21901
       O   -16.87214   -1.57394  -12.62697
      H1   -16.75252   -1.80771  -13.56541
       H   -15.69664    0.01189  -13.05908
       O   -14.82788    0.44963  -12.95364
      H1   -14.12858    0.03234  -13.47219
       H   -13.69508    1.61344  -15.39233
       O   -14.28963    2.18651  -15.91429
      H1   -15.09801    2.47850  -15.46774
       H   -15.56794   -2.19505  -11.76573
       O   -14.80250   -2.57212  -11.29024
      H1   -14.92875   -3.53677  -11.23903
       H   -15.67432    1.69160  -11.91391
       O   -15.84419    2.50862  -11.36307
      H1   -16.80887    2.63396  -11.21145
       H   -13.27773   -2.20271  -12.09873
       O   -12.46290   -2.06230  -12.64304
      H1   -12.68920   -1.55619  -13.40513
       H   -15.38703    1.85681   -9.79596
       O   -14.90303    1.44389   -9.07117
      H1   -15.11878    1.96122   -8.29689
       H   -16.26431   -0.94384  -16.17759
       O   -16.60469   -1.58323  -15.45851
      H1   -17.29289   -2.18587  -15.79302
       H   -14.95829   -2.49061  -15.01920
       O   -14.09644   -2.84833  -15.11461
      H1   -13.76147   -3.07362  -14.23346
       H   -12.03887   -0.26243  -15.25354
       O   -12.33041    0.46670  -14.65092
      H1   -11.52629    0.84884  -14.28105

