30
frame 3 | Written by MDAnalysis XYZWriter (release 2.4.3)
       H    -1.46220   12.61352    3.51127
       O    -1.72849   13.48536    3.12358
      H1    -2.22154   13.28607    2.31648
       H    -2.17018   15.64083    1.76549
       O    -1.56460   16.28400    2.10519
      H1    -2.15254   17.05252    2.21971
       H    -4.43501    9.75206    1.03747
       O    -4.07707   10.23683    1.75653
      H1    -4.50911   11.06244    1.68752
       H    -0.22076   14.15930    0.60036
       O    -0.66297   13.72830   -0.15548
      H1    -1.12036   14.39775   -0.63899
       H    -4.29125   14.22745    1.25024
       O    -3.80144   15.01309    1.00206
      H1    -4.41556   15.72179    1.02008
       H    -5.06513   12.73707    3.01541
       O    -5.06503   12.76410    2.05460
      H1    -5.94289   12.43622    1.74083
       H    -2.54662   11.21824    0.65905
       O    -1.84308   11.27582   -0.00297
      H1    -1.40038   12.12606    0.08733
       H    -6.04035   12.91378   -3.15598
       O    -6.55956   12.97148   -2.32405
      H1    -6.06557   13.56690   -1.77731
       H    -6.04134   17.35600    1.37310
       O    -5.07450   17.46183    1.40584
      H1    -4.95553   18.42033    1.02756
       H    -3.78926   15.11368    5.77825
       O    -2.96615   15.52962    5.34414
      H1    -2.80443   14.76857    4.78953

