30
frame 4 | Written by MDAnalysis XYZWriter (release 2.4.3)
       H    -4.00929   -3.06578   12.82989
       O    -3.95409   -2.12347   12.60244
      H1    -3.03658   -2.08005   12.39355
       H    -4.26866   -5.15072   13.65292
       O    -5.00192   -4.91187   13.04944
      H1    -5.04559   -5.55050   12.35303
       H    -0.88744   -0.89284   13.08371
       O    -1.39909   -0.84400   12.25857
      H1    -1.72025    0.09245   12.33555
       H    -1.14536   -4.20871   13.91557
       O    -2.08889   -4.49700   13.98400
      H1    -2.08366   -4.56504   14.99266
       H    -1.92520   -7.21444   12.35492
       O    -2.18574   -7.01191   13.20866
      H1    -1.97752   -6.10329   13.46435
       H     1.38012   -1.31082   14.45440
       O     0.40635   -1.16140   14.40059
      H1     0.02876   -1.74595   15.05592
       H     0.82771   -4.42039   13.23873
       O     0.68658   -4.75422   14.11796
      H1     1.00146   -5.66108   14.21725
       H    -2.23029   -4.52191   17.49068
       O    -1.78006   -4.35643   16.60875
      H1    -1.72353   -3.40222   16.49130
       H     0.28689   -5.59799   11.49487
       O     0.98036   -4.86162   11.35184
      H1     0.60103   -4.29995   10.63215
       H     1.71115   -5.44960   17.19546
       O     2.09763   -4.73256   16.73332
      H1     1.65809   -4.64021   15.88067

