30
frame 4 | Written by MDAnalysis XYZWriter (release 2.4.3)
       H   -16.56083    4.65868    7.37765
       O   -16.40932    3.74403    7.69560
      H1   -15.93800    3.82718    8.55918
       H   -13.22764    3.90038   12.37842
       O   -12.87646    3.19905   11.84101
      H1   -12.51764    2.60819   12.50772
       H   -15.97525    5.32384   10.43342
       O   -15.26363    4.69795   10.29414
      H1   -15.48518    3.87925   10.74569
       H   -15.70588    1.51052   11.15825
       O   -16.33638    2.24982   11.20043
      H1   -17.11812    1.95113   10.77813
       H    -8.87666    3.38258   10.84521
       O    -9.15925    2.77687   11.51592
      H1    -9.94388    2.25253   11.15959
       H   -13.47703    2.14867   10.30350
       O   -13.30581    1.49817    9.60132
      H1   -14.09957    0.93487    9.66453
       H   -10.96769    2.03188    6.93927
       O   -11.62158    1.28347    6.97469
      H1   -12.18274    1.40172    7.73484
       H   -14.49215   -0.93637   11.17642
       O   -15.11036   -0.35750   10.68447
      H1   -15.93583   -0.54543   11.17302
       H   -11.61257    4.26795    9.04984
       O   -11.44916    4.53931    9.93210
      H1   -11.89414    3.95142   10.53806
       H   -11.92358    0.80373   10.53940
       O   -11.05455    0.80824   10.95985
      H1   -11.30114    0.42670   11.83782

