30
frame 3 | Written by MDAnalysis XYZWriter (release 2.4.3)
       H   -16.60939    6.49621  -16.32952
       O   -16.88552    5.69486  -16.79066
      H1   -16.83630    5.89481  -17.70643
       H   -19.43892    3.74727  -17.82945
       O   -19.48189    2.88976  -18.33660
      H1   -19.00811    2.23015  -17.73908
       H   -13.58774    6.78029  -17.25643
       O   -13.54889    7.60582  -17.79009
      H1   -13.77581    8.34197  -17.14536
       H   -14.57051   10.44464  -19.11137
       O   -15.44814   10.20244  -19.37089
      H1   -15.23101    9.30431  -19.74149
       H   -16.49270   10.48368  -17.94178
       O   -16.99336   10.63496  -17.14878
      H1   -16.95849    9.83521  -16.63783
       H   -19.96105    8.76538  -17.32524
       O   -19.99173    9.43197  -18.04061
      H1   -19.12337    9.80672  -18.15092
       H   -17.10331    8.25579  -15.02705
       O   -16.34960    8.16561  -15.59101
      H1   -15.53571    8.34289  -15.01016
       H   -13.97670    4.49833  -18.26977
       O   -13.52735    4.57077  -17.37649
      H1   -13.84749    3.77544  -16.95045
       H   -20.02720    4.78118  -15.96642
       O   -19.49649    5.22677  -16.64187
      H1   -18.53362    5.22388  -16.44315
       H   -16.36303    4.52131  -15.43022
       O   -16.43454    3.78053  -14.84835
      H1   -16.15538    4.12162  -14.00657

