30
frame 3 | Written by MDAnalysis XYZWriter (release 2.4.3)
       H   -16.08790    0.61588  -17.67938
       O   -15.46497   -0.00863  -17.21392
      H1   -14.88815    0.62767  -16.80214
       H   -11.04027   -3.47683  -19.50377
       O   -10.77807   -4.38645  -19.39001
      H1    -9.93411   -4.62696  -19.86141
       H   -15.42055    0.37330  -19.46612
       O   -14.46944    0.43357  -19.65671
      H1   -14.18497    0.26327  -18.75068
       H   -13.90771   -4.48846  -18.74717
       O   -14.49474   -3.67119  -18.90198
      H1   -14.39769   -3.65461  -19.82755
       H   -13.96754   -4.78140  -16.54634
       O   -13.68104   -5.65714  -16.35133
      H1   -12.91759   -5.62717  -15.73020
       H   -16.26431   -0.94384  -16.17759
       O   -16.60469   -1.58323  -15.45851
      H1   -17.29289   -2.18587  -15.79302
       H   -17.79460   -4.68443  -16.73081
       O   -17.42896   -4.97132  -17.57381
      H1   -16.70609   -5.55704  -17.32219
       H   -14.95829   -2.49061  -15.01920
       O   -14.09644   -2.84833  -15.11461
      H1   -13.76147   -3.07362  -14.23346
       H   -12.42704   -1.03529  -18.24284
       O   -12.48523   -1.06069  -17.27922
      H1   -13.16097   -1.72141  -17.13826
       H   -13.07772   -5.87033  -17.99863
       O   -12.79858   -6.06861  -18.92945
      H1   -11.98659   -5.60154  -18.92262

