30
frame 3 | Written by MDAnalysis XYZWriter (release 2.4.3)
       H    -2.13211   -8.96209    0.48709
       O    -1.65261   -9.76492    0.80985
      H1    -1.03907   -9.43636    1.43956
       H     2.53123  -10.80445    2.00334
       O     2.41852  -11.20135    1.12963
      H1     2.37604  -10.50863    0.40026
       H    -0.89993   -6.55367   -0.17265
       O    -0.59498   -7.36742   -0.52374
      H1     0.15553   -7.52914    0.03755
       H     2.43239   -8.95649   -1.65946
       O     2.51526   -9.57155   -0.91341
      H1     3.45976   -9.54737   -0.66270
       H    -1.80841  -10.74225    3.11566
       O    -2.47769  -11.39147    3.35692
      H1    -3.21900  -11.24940    2.77123
       H     0.14310  -12.94491   -1.00724
       O     0.33205  -13.88195   -0.94154
      H1     1.28664  -13.98068   -0.63407
       H     1.38857  -12.74062    1.60106
       O     0.56803  -13.20399    1.92797
      H1     0.17202  -13.61191    1.20762
       H    -0.97983  -10.84628   -3.28973
       O    -0.54590  -10.34768   -4.02243
      H1    -1.13599   -9.70183   -4.37767
       H    -2.97385   -9.78412   -1.94743
       O    -2.70169  -10.69137   -2.28243
      H1    -1.91942  -10.87701   -1.72252
       H    -0.62688  -11.00488   -0.31084
       O    -0.38357  -11.19040   -1.24733
      H1     0.49409  -10.87099   -1.44802

