30
frame 3 | Written by MDAnalysis XYZWriter (release 2.4.3)
       H   -15.43205   12.94608   18.10108
       O   -15.33136   12.07420   17.66240
      H1   -15.41756   11.41104   18.38188
       H   -16.09457   12.10222   12.39015
       O   -16.97031   11.94508   12.74615
      H1   -17.57138   12.42074   12.16516
       H   -14.57736   12.30573   15.78378
       O   -13.96426   12.20946   15.07326
      H1   -13.68439   13.03700   14.77430
       H   -18.81746   17.40902   17.04395
       O   -18.37922   17.22614   16.20162
      H1   -19.00425   16.53372   15.92521
       H   -17.54223    6.91797   13.70139
       O   -17.44509    7.88109   13.82337
      H1   -16.65316    8.12794   13.34987
       H   -18.05475    8.39622   15.97481
       O   -18.59789    8.75730   16.69672
      H1   -18.51383    9.71115   16.74347
       H   -17.54950   12.71699   14.43162
       O   -17.93242   13.31227   15.14582
      H1   -18.20920   12.71958   15.85071
       H   -16.60691   14.59017   15.65127
       O   -15.95680   15.14692   16.04407
      H1   -16.45070   15.93911   16.21215
       H   -17.37805   11.87334   17.69023
       O   -18.21251   11.48112   17.38722
      H1   -18.93618   11.90740   17.91356
       H   -14.82573   14.94786   18.98769
       O   -15.57706   14.41078   18.77231
      H1   -15.88269   14.70383   17.89848

