30
frame 4 | Written by MDAnalysis XYZWriter (release 2.4.3)
       H    14.84155    5.52131   17.79307
       O    14.48306    5.30212   16.87025
      H1    14.41735    6.19542   16.45575
       H    12.96592    4.68211   17.57262
       O    12.10165    4.53067   17.99093
      H1    11.77118    3.59758   17.94967
       H    19.98297    8.67440   17.80933
       O    19.05400    8.52751   17.52055
      H1    18.46093    8.94015   18.23473
       H    15.84468    7.63999   19.44878
       O    15.74188    6.70563   19.28401
      H1    16.49370    6.24001   19.00535
       H    14.96886    2.53424   18.31007
       O    15.43303    2.99060   19.01634
      H1    16.35387    2.68958   19.03444
       H    18.92791    6.27432   19.91497
       O    18.48925    6.17572   19.06157
      H1    18.65869    7.00540   18.63664
       H    18.63347    2.17299   19.20724
       O    17.89620    2.16613   18.63005
      H1    17.55151    1.27108   18.79186
       H    18.11792    5.71246   15.93755
       O    18.73973    6.40544   15.54724
      H1    18.51840    7.26836   16.03541
       H    16.06974    4.86773   16.24150
       O    16.95318    4.45044   16.32487
      H1    16.95626    4.02401   17.18938
       H    16.48743   10.03998   18.66762
       O    16.98112    9.35647   19.15573
      H1    17.47387    9.88925   19.83655

