30
frame 3 | Written by MDAnalysis XYZWriter (release 2.4.3)
       H     6.52326  -18.54622   17.30873
       O     7.47795  -18.47124   17.12877
      H1     7.64982  -17.65862   16.69747
       H     4.65429  -15.28437   19.90628
       O     5.19974  -15.94478   19.44380
      H1     5.68263  -15.41869   18.77686
       H     7.71921  -16.49775   15.35583
       O     8.15415  -16.08687   16.12886
      H1     7.41554  -15.57680   16.45317
       H     0.96230  -15.71088   19.94984
       O     0.42648  -15.57373   19.13112
      H1     0.98886  -15.62399   18.34378
       H     4.87884  -17.36561   18.13097
       O     4.74769  -18.22003   17.64183
      H1     4.58886  -18.88187   18.29499
       H     9.59949  -18.37524   19.45902
       O     8.69816  -18.17620   19.62518
      H1     8.21110  -18.18494   18.76805
       H     1.91721  -16.10625   16.51854
       O     1.73663  -15.13077   16.55301
      H1     1.51664  -14.89224   15.59188
       H     6.41691  -13.48367   17.83567
       O     6.28744  -14.38463   17.46729
      H1     5.56902  -14.24884   16.80189
       H     5.14137  -17.19144   15.93770
       O     5.40758  -16.46767   15.34909
      H1     4.69827  -16.15613   14.76742
       H     2.75113  -17.81792   17.80262
       O     1.86578  -17.84424   17.35220
      H1     1.89562  -18.61666   16.81747

