30
frame 5 | Written by MDAnalysis XYZWriter (release 2.4.3)
       H    -9.55593   -4.08680  -16.72569
       O    -9.72310   -4.96657  -17.16383
      H1    -9.94873   -4.59138  -18.04594
       H   -11.57700   -7.38766  -15.93830
       O   -11.61397   -6.48472  -15.59486
      H1   -11.02468   -5.92684  -16.15936
       H   -11.57089   -3.61097  -13.11244
       O   -11.07592   -4.40273  -12.80585
      H1   -11.46832   -5.12960  -13.33094
       H    -9.55176   -2.26458  -14.99806
       O    -9.35926   -3.23020  -14.92995
      H1    -9.82483   -3.53391  -14.14248
       H    -7.48239   -7.31475  -16.63547
       O    -8.32468   -7.45349  -16.21659
      H1    -8.86480   -6.73794  -16.62767
       H   -14.37745   -5.47813  -16.09962
       O   -14.26635   -6.40953  -16.16932
      H1   -13.32680   -6.55343  -15.99844
       H   -12.45817   -8.59959  -13.19207
       O   -12.31959   -7.62620  -13.24881
      H1   -11.90788   -7.53142  -14.10160
       H   -14.65602   -3.22884  -16.18941
       O   -13.89723   -3.65816  -15.70057
      H1   -13.52506   -3.12282  -14.95589
       H    -6.65768   -5.22283  -14.47548
       O    -7.29812   -5.57124  -13.81657
      H1    -8.08447   -5.88520  -14.29275
       H   -12.14539   -9.59231  -16.94922
       O   -11.84867   -9.14689  -16.14603
      H1   -11.37048   -9.74067  -15.61651

