30
frame 5 | Written by MDAnalysis XYZWriter (release 2.4.3)
       H     6.14507   19.73750   -5.29073
       O     6.68773   19.22197   -4.69427
      H1     6.30905   18.33289   -4.76194
       H     7.40184   17.23651   -2.18438
       O     6.73181   16.60550   -2.41610
      H1     6.79094   15.91297   -1.64256
       H     3.23841   16.99925   -3.39065
       O     3.29072   16.03726   -3.20091
      H1     4.14846   15.93577   -2.73530
       H     7.57944   16.79172    0.55121
       O     7.87060   15.95755    0.12540
      H1     8.79467   15.93510    0.33893
       H     5.85400   17.95870   -1.91746
       O     5.21426   18.71437   -1.75941
      H1     4.75510   18.92338   -2.58640
       H     5.85812   14.10258   -4.12630
       O     6.68247   14.40429   -4.58095
      H1     6.83640   15.31189   -4.23637
       H    10.37941   16.44929   -1.85036
       O    10.79960   17.02426   -1.20685
      H1    10.13310   17.78983   -1.08128
       H     9.66287   15.14421   -3.53086
       O     9.88717   14.72070   -2.72058
      H1     9.16236   14.16268   -2.39407
       H     9.18721   15.91166   -5.67181
       O     9.81330   16.14988   -4.98762
      H1     9.68900   17.09591   -4.84753
       H     8.44617   18.90644    0.10034
       O     9.21119   19.18657   -0.46479
      H1     8.82006   19.94605   -0.85810

