30
frame 4 | Written by MDAnalysis XYZWriter (release 2.4.3)
       H    -5.14764   12.60283   15.02320
       O    -5.22347   12.93749   15.92034
      H1    -5.60484   13.84225   16.00492
       H    -7.23431   11.00942   14.49633
       O    -7.67279   11.66876   15.07478
      H1    -7.02185   12.22309   15.53734
       H    -5.85544    9.28203   10.60685
       O    -6.32177   10.02394   10.91079
      H1    -6.39289   10.01868   11.87899
       H    -3.28234   11.64402   14.19226
       O    -3.97845   11.46441   13.59055
      H1    -3.61295   11.43919   12.70463
       H    -1.89257    9.84317   12.57141
       O    -2.28228    8.99438   12.81675
      H1    -2.21443    8.99979   13.78639
       H    -3.71085   11.72189   10.73883
       O    -3.04766   11.11817   11.15172
      H1    -3.37520   10.18483   11.16288
       H    -6.41524    9.16161   14.04087
       O    -6.35776   10.04863   13.62602
      H1    -5.43454   10.38864   13.73430
       H    -2.44071   10.35329   15.72934
       O    -2.49807    9.38212   15.73211
      H1    -1.79944    9.10061   16.29782
       H    -1.74888   12.71799   15.49025
       O    -2.46869   12.21299   15.87570
      H1    -3.12713   12.80436   16.20579
       H    -5.48317   12.85446    9.65240
       O    -5.38821   12.64927   10.56732
      H1    -5.69047   11.71018   10.55639

