30
frame 4 | Written by MDAnalysis XYZWriter (release 2.4.3)
       H    -0.69758  -17.38887   18.39847
       O    -1.32161  -17.77815   17.81773
      H1    -1.83595  -17.12232   17.38483
       H    -0.43501  -14.34546   19.67239
       O    -0.86771  -13.52156   19.42837
      H1    -0.31700  -13.16563   18.74604
       H     5.22213  -17.22026   18.24685
       O     5.22322  -18.19401   17.99263
      H1     5.43276  -18.64939   18.82349
       H     2.05034  -13.77470   14.68831
       O     1.32194  -13.94681   15.32899
      H1     0.63383  -14.30126   14.67833
       H     2.04819  -16.70533   17.62071
       O     2.06243  -15.68806   17.63107
      H1     1.73577  -15.35737   16.74240
       H     4.08287  -13.84004   15.99667
       O     3.74385  -13.25146   16.68122
      H1     3.97213  -12.39228   16.34529
       H     6.37320  -12.94167   17.99718
       O     6.13790  -13.78730   17.68899
      H1     5.20736  -13.63473   17.57245
       H     3.35003  -15.85298   15.70995
       O     4.19045  -15.55629   15.37818
      H1     4.03407  -15.66119   14.44229
       H     3.34544  -18.32124   18.23392
       O     2.45510  -18.46550   17.91731
      H1     2.55048  -18.68827   16.96545
       H     1.33740  -12.97221   17.02435
       O     0.84008  -12.48720   17.65579
      H1     1.37485  -12.51306   18.48690

