30
frame 0 | Written by MDAnalysis XYZWriter (release 2.4.3)
       H    12.33631    4.62743   -5.89940
       O    12.29860    4.68202   -4.97704
      H1    13.00809    5.32913   -4.71287
       H    14.60277    9.50427   -8.49874
       O    14.44540    9.65948   -9.43928
      H1    13.73577    9.07544   -9.69460
       H    15.81524    6.01215   -5.68596
       O    16.18257    5.85118   -4.79723
      H1    17.05764    6.21903   -4.87275
       H    10.29168    7.14355   -7.61679
       O     9.51261    7.07337   -8.17395
      H1     9.41905    6.13088   -8.40029
       H    10.94188    6.72102  -10.97172
       O    11.87850    6.54715  -11.23390
      H1    12.23968    6.61451  -10.33628
       H    17.35806    8.30791   -9.89461
       O    16.74781    8.71802  -10.56647
      H1    15.97068    9.08630   -9.98030
       H    11.94849    9.23387   -6.42249
       O    11.52613    8.37725   -6.58664
      H1    11.48064    7.91727   -5.74171
       H    12.18586    4.25179   -8.76015
       O    12.67442    3.91027   -8.01227
      H1    13.17973    3.17215   -8.41375
       H    12.36329    7.59537   -7.83898
       O    12.78960    7.32529   -8.63698
      H1    13.60185    6.89505   -8.40457
       H    15.20456    7.50922   -7.19375
       O    14.90135    6.56784   -7.17384
      H1    15.62492    5.95509   -7.53090

