30
frame 5 | Written by MDAnalysis XYZWriter (release 2.4.3)
       H   -14.80114   -5.08524   -4.18070
       O   -15.54740   -4.45699   -3.98693
      H1   -16.28433   -4.70442   -4.63816
       H   -13.26887   -3.72233   -1.70683
       O   -12.40321   -4.01945   -1.53008
      H1   -11.92613   -3.31362   -1.01359
       H    -8.17671   -6.52791   -4.40393
       O    -8.24764   -6.08314   -3.56796
      H1    -9.24252   -5.92789   -3.45418
       H    -9.20323   -5.73075   -6.54722
       O    -8.76069   -6.56897   -6.35251
      H1    -7.92857   -6.53929   -6.89459
       H   -10.90581   -8.91161   -5.87451
       O   -10.89678   -8.07327   -6.41946
      H1   -10.04895   -7.62885   -6.29283
       H   -11.40791   -5.14051   -4.47021
       O   -11.08535   -5.54933   -3.61250
      H1   -11.39255   -4.94811   -2.93224
       H    -9.13541   -3.79661   -6.33067
       O    -9.80468   -4.11032   -6.96590
      H1    -9.38369   -3.89094   -7.84174
       H   -13.65177   -7.48538   -4.29306
       O   -13.68871   -6.68604   -3.73324
      H1   -12.82505   -6.33275   -3.67791
       H   -12.49630   -1.05898   -3.10019
       O   -12.93096   -1.77138   -3.59409
      H1   -12.71507   -2.53211   -3.13195
       H   -12.23492   -5.84914   -6.49930
       O   -12.15462   -4.99881   -6.04064
      H1   -11.51213   -4.53169   -6.51479

