30
frame 4 | Written by MDAnalysis XYZWriter (release 2.4.3)
       H    -3.06042    5.29347    0.29345
       O    -2.87904    4.59207   -0.34032
      H1    -2.54415    3.91792    0.24761
       H     0.53002    3.95091    3.88330
       O     0.22475    4.85520    4.08836
      H1     0.62730    5.37765    3.41614
       H    -3.66259    7.49977    1.22951
       O    -3.79895    6.58321    1.47140
      H1    -3.25761    6.40275    2.27542
       H     0.63439    6.19963    1.14754
       O     1.55165    6.26607    1.51648
      H1     1.65481    7.22281    1.65677
       H    -0.69113    5.80897   -2.58022
       O    -1.05352    4.94064   -2.35640
      H1    -1.62610    4.87598   -1.53362
       H     2.61259    6.86186    0.05037
       O     3.16879    7.08524   -0.64800
      H1     2.71944    7.10083   -1.50346
       H    -1.72248    5.73818    3.93671
       O    -2.10279    6.60370    3.73003
      H1    -2.73187    6.86019    4.33263
       H    -1.36761    8.21898    2.93351
       O    -1.37055    8.70013    2.06989
      H1    -2.21768    9.19148    2.13701
       H    -1.10009    7.37228    1.04349
       O    -0.89647    6.78492    0.29423
      H1    -0.70560    7.42704   -0.43202
       H     0.41450    8.70846   -1.98756
       O    -0.46271    8.33538   -2.13763
      H1    -1.20746    8.95446   -2.13307

