30
frame 4 | Written by MDAnalysis XYZWriter (release 2.4.3)
       H     0.55232   16.62755  -12.76479
       O     0.64461   16.08825  -11.94275
      H1     0.41394   16.72740  -11.25689
       H    -0.34484   19.19473  -10.44701
       O    -0.37962   18.94051   -9.53169
      H1    -1.27296   18.94191   -9.15229
       H    -1.20132   17.89265   -5.22666
       O    -0.38714   17.33778   -5.08819
      H1     0.18352   17.97567   -4.62406
       H     1.19381   14.67514   -8.01848
       O     0.95892   14.39302   -8.91508
      H1     1.74861   14.55270   -9.48240
       H     1.29825   18.07947   -6.68917
       O     2.10327   17.92613   -7.22556
      H1     2.39535   18.90014   -7.32762
       H     0.77398   15.74078   -5.94804
       O     1.38707   15.03717   -6.20975
      H1     0.90362   14.27106   -5.99331
       H    -2.79397   14.93739   -6.08520
       O    -2.80800   15.05718   -7.03852
      H1    -1.99977   15.53094   -7.29119
       H    -4.03840   16.31101   -8.66696
       O    -4.36569   16.95839   -9.33992
      H1    -4.03042   17.83592   -9.08950
       H    -3.69645   19.81178   -8.66944
       O    -3.14990   19.05287   -8.45714
      H1    -3.15457   18.91916   -7.50303
       H    -0.26915   15.61524   -8.74698
       O    -0.81765   16.34945   -8.34973
      H1    -0.43755   17.16244   -8.72032

