30
frame 4 | Written by MDAnalysis XYZWriter (release 2.4.3)
       H   -17.75839    1.45671  -14.82314
       O   -17.82274    1.79432  -13.89568
      H1   -17.20453    2.52956  -14.00016
       H   -17.42887    0.45556  -17.19108
       O   -17.20889    0.73265  -16.31055
      H1   -16.33073    1.10518  -16.37742
       H   -18.99021    3.24227  -18.08519
       O   -19.40782    2.44098  -18.43800
      H1   -18.67675    1.76864  -18.36830
       H   -15.85594   -0.03264  -19.52859
       O   -14.99964    0.11923  -19.92232
      H1   -14.26900   -0.13833  -19.30080
       H   -15.46021   -3.59059  -18.68916
       O   -14.64669   -3.16904  -18.92281
      H1   -14.81984   -2.75998  -19.80636
       H   -17.53107    0.96980  -19.76021
       O   -17.64292    0.28374  -19.05757
      H1   -17.82968   -0.56687  -19.46753
       H   -17.67288   -1.37309  -15.87614
       O   -17.21294   -2.22541  -15.78320
      H1   -17.91092   -2.91393  -15.97851
       H   -17.92429   -4.50845  -18.02240
       O   -16.95933   -4.54820  -18.21360
      H1   -16.70398   -5.26239  -17.65017
       H   -15.75423   -3.10162  -15.71784
       O   -14.94153   -3.51402  -15.40877
      H1   -15.18922   -3.55495  -14.49038
       H   -12.40808   -1.14238  -18.06942
       O   -13.27896   -0.79686  -17.97386
      H1   -13.78500   -1.61168  -17.91832

