30
frame 5 | Written by MDAnalysis XYZWriter (release 2.4.3)
       H    -0.47928  -16.82021    2.33235
       O     0.50976  -16.91164    2.46264
      H1     0.83160  -15.99108    2.66755
       H    -3.68811  -17.48384   -3.92282
       O    -2.79998  -17.67833   -4.10021
      H1    -2.45086  -16.98790   -4.64826
       H     1.73856  -14.86534    0.17861
       O     1.35814  -13.98553    0.18551
      H1     1.94735  -13.42439   -0.37744
       H     0.55370  -18.92204   -4.97515
       O     0.98185  -18.73002   -4.15361
      H1     0.31219  -18.93704   -3.42451
       H    -5.13628  -15.10709   -0.41336
       O    -4.23716  -14.85299   -0.56693
      H1    -3.69626  -15.65659   -0.56856
       H    -1.41580  -15.38200   -0.93231
       O    -1.90525  -16.20691   -0.72612
      H1    -1.35569  -16.93740   -1.03201
       H    -2.08609  -15.89111    1.06636
       O    -2.07188  -16.06981    2.03891
      H1    -1.90379  -15.22038    2.53601
       H    -0.92261  -13.24719   -1.05292
       O    -0.57929  -13.99820   -1.60907
      H1     0.22746  -14.34396   -1.23011
       H    -1.58187  -18.17819   -2.62857
       O    -1.11712  -18.56632   -1.88570
      H1    -1.63320  -19.19307   -1.42539
       H     1.96024  -17.06845    0.91121
       O     2.58358  -16.52957    0.32397
      H1     3.37728  -16.35615    0.86996

