30
frame 4 | Written by MDAnalysis XYZWriter (release 2.4.3)
       H   -15.45362   14.18912  -13.80628
       O   -16.14114   14.81038  -13.55667
      H1   -16.28592   15.30583  -14.39077
       H   -18.14122   17.95746  -13.90384
       O   -17.58971   17.50236  -14.55202
      H1   -17.82369   17.89325  -15.39648
       H   -15.70428   17.35559  -18.95322
       O   -15.47645   17.41562  -17.99363
      H1   -15.89907   16.69419  -17.50574
       H   -17.08472   13.06714  -13.43019
       O   -17.11395   12.24573  -14.02321
      H1   -17.59321   11.48755  -13.59260
       H   -12.62228   13.80836  -14.02040
       O   -13.49110   13.49062  -14.19341
      H1   -13.38199   13.37956  -15.13656
       H   -16.41073   14.19223  -11.47189
       O   -16.07031   13.52022  -10.85849
      H1   -15.53139   13.94931  -10.20620
       H   -14.44301   17.03522  -11.99628
       O   -14.26160   16.10560  -11.94126
      H1   -14.93511   15.67934  -12.47017
       H   -18.29883   12.66948  -15.43643
       O   -18.42653   12.82401  -16.39648
      H1   -18.21037   11.92747  -16.68350
       H   -16.03485   18.14746  -14.26311
       O   -15.14624   18.49573  -14.07426
      H1   -15.26784   18.93657  -13.23806
       H   -16.42927   13.89018  -18.21670
       O   -16.22259   14.10464  -17.28240
      H1   -16.93064   13.64644  -16.88706

