30
frame 4 | Written by MDAnalysis XYZWriter (release 2.4.3)
       H    -7.23431   11.00942   14.49633
       O    -7.67279   11.66876   15.07478
      H1    -7.02185   12.22309   15.53734
       H    -5.85544    9.28203   10.60685
       O    -6.32177   10.02394   10.91079
      H1    -6.39289   10.01868   11.87899
       H    -5.17052    6.81692   10.63575
       O    -5.65390    7.50124   10.16805
      H1    -4.91038    7.82938    9.53878
       H    -3.28234   11.64402   14.19226
       O    -3.97845   11.46441   13.59055
      H1    -3.61295   11.43919   12.70463
       H    -3.71085   11.72189   10.73883
       O    -3.04766   11.11817   11.15172
      H1    -3.37520   10.18483   11.16288
       H    -3.43753    9.94457    9.12812
       O    -3.70754    9.05217    8.95722
      H1    -3.02322    8.59883    8.51075
       H    -6.41524    9.16161   14.04087
       O    -6.35776   10.04863   13.62602
      H1    -5.43454   10.38864   13.73430
       H    -9.08505    6.99380   10.28870
       O    -8.50014    6.84409    9.53023
      H1    -7.59023    7.07835    9.81844
       H    -5.48317   12.85446    9.65240
       O    -5.38821   12.64927   10.56732
      H1    -5.69047   11.71018   10.55639
       H    -8.21321   10.45589   10.43452
       O    -9.03690   10.84140   10.01030
      H1    -8.74556   11.16689    9.16713

