30
frame 4 | Written by MDAnalysis XYZWriter (release 2.4.3)
       H    14.31854    2.19319  -16.97334
       O    14.86257    2.79345  -17.49985
      H1    14.65076    2.73513  -18.42673
       H    13.87371    7.45126  -15.47914
       O    13.79602    8.37341  -15.76914
      H1    13.38827    8.31032  -16.67382
       H    13.19453    4.75798  -13.05247
       O    13.45236    4.32302  -12.24944
      H1    12.91176    4.88557  -11.68987
       H    11.84737    5.75647  -14.46003
       O    12.81371    5.62693  -14.53442
      H1    12.85145    5.24381  -15.41771
       H     9.71363    4.39133  -14.31849
       O     9.80750    4.83801  -13.49341
      H1     9.57677    5.72546  -13.65974
       H    15.13891    4.55544  -17.64905
       O    14.99242    5.56143  -17.54594
      H1    15.30674    5.97588  -18.34781
       H     9.62699    7.96598  -15.04133
       O     9.66880    7.59666  -14.13278
      H1    10.56837    7.79600  -13.81440
       H    16.43623    3.33099  -13.96356
       O    15.74344    3.07070  -14.58169
      H1    14.94964    3.57906  -14.60010
       H    12.02302    2.23884  -16.30328
       O    11.94391    3.12703  -15.86891
      H1    10.95452    3.24275  -15.99435
       H    12.15661    1.97652  -14.60882
       O    12.13853    1.38813  -13.81343
      H1    11.75622    1.98417  -13.18035

