30
frame 4 | Written by MDAnalysis XYZWriter (release 2.4.3)
       H     0.72705  -12.02187   11.79945
       O     0.65445  -12.22260   10.87010
      H1     0.36527  -11.42537   10.34207
       H    -2.50591   -9.50006   13.34035
       O    -1.72451   -9.89368   12.81105
      H1    -2.17504  -10.52251   12.18312
       H    -2.28727  -12.82684   15.45066
       O    -2.66929  -13.64199   15.08235
      H1    -3.20076  -13.46386   14.29080
       H    -0.57248  -11.85250   16.63588
       O    -1.13595  -11.32735   15.98374
      H1    -1.72073  -10.84956   16.62293
       H    -1.18689   -7.63016   14.66883
       O    -1.06943   -8.29071   15.38047
      H1    -0.87355   -9.16212   15.05423
       H    -0.19892  -11.01036   13.79726
       O     0.68649  -11.27307   13.60356
      H1     0.99066  -11.69822   14.41226
       H    -1.09583  -14.20252   13.99877
       O    -0.39504  -14.72277   13.56305
      H1    -0.62240  -14.74518   12.64419
       H     2.05034  -13.77470   14.68831
       O     1.32194  -13.94681   15.32899
      H1     0.63383  -14.30126   14.67833
       H     4.08287  -13.84004   15.99667
       O     3.74385  -13.25146   16.68122
      H1     3.97213  -12.39228   16.34529
       H     1.33740  -12.97221   17.02435
       O     0.84008  -12.48720   17.65579
      H1     1.37485  -12.51306   18.48690

