30
frame 4 | Written by MDAnalysis XYZWriter (release 2.4.3)
       H   -13.02334    2.34489   16.83421
       O   -12.19623    2.79226   16.60419
      H1   -11.62238    2.30612   17.20217
       H    -9.59618   -1.89921   19.83542
       O   -10.42696   -1.40810   19.62649
      H1   -10.80695   -1.87842   18.88513
       H    -6.60785   -0.82394   19.21076
       O    -6.86241   -0.51019   18.35299
      H1    -6.10494   -0.61080   17.74004
       H   -10.76987    0.27341   18.18352
       O   -10.49411    1.13264   17.83415
      H1    -9.62826    1.40291   18.18255
       H   -12.13394   -1.01729   16.34093
       O   -11.97722   -1.45691   17.18409
      H1   -11.57074   -2.28190   16.91158
       H    -7.98153   -1.77393   17.34355
       O    -8.31857   -2.43958   16.66845
      H1    -8.56075   -1.83103   15.89653
       H    -8.03016    2.02791   19.79798
       O    -8.05475    1.77881   18.89341
      H1    -7.51533    0.95646   18.84309
       H    -9.87576    0.49165   14.83956
       O    -9.06349    0.40760   15.32175
      H1    -9.34923    0.76280   16.19407
       H   -14.15801   -3.86606   17.17821
       O   -14.47232   -3.02163   17.53643
      H1   -13.77093   -2.39319   17.53777
       H   -12.04000    1.68021   14.78302
       O   -11.81970    1.35277   13.91647
      H1   -12.35908    0.49714   13.92894

