30
frame 4 | Written by MDAnalysis XYZWriter (release 2.4.3)
       H    10.30287   -8.62408  -16.09478
       O    10.36159   -8.88181  -17.00744
      H1    10.26423   -8.01640  -17.45774
       H    10.83076   -9.53974  -11.30469
       O    10.27676   -8.75563  -11.35652
      H1    10.90959   -8.09001  -11.75125
       H    14.68073   -5.01301  -15.39706
       O    14.52040   -5.05383  -16.31984
      H1    13.54408   -4.96618  -16.30288
       H    11.93708   -4.69750  -14.45678
       O    11.97573   -5.32669  -15.21005
      H1    11.43055   -6.04901  -14.90999
       H    11.53263   -3.74804  -11.67408
       O    11.89068   -3.56682  -12.50936
      H1    11.36721   -2.78194  -12.75995
       H    12.68689   -6.66396  -12.80166
       O    12.21737   -7.43938  -13.08030
      H1    12.97268   -8.08340  -13.22947
       H    10.38299   -7.50700  -13.92031
       O     9.81001   -7.22299  -14.68033
      H1     8.95702   -7.59273  -14.40127
       H    14.54193   -5.69287  -11.65647
       O    14.24552   -5.52154  -12.54517
      H1    13.90602   -4.59163  -12.54845
       H    11.24494   -5.35089  -18.26712
       O    12.09447   -4.86845  -18.13166
      H1    11.96874   -4.78759  -17.15596
       H     9.75930   -4.94803  -12.11491
       O     9.26612   -5.27686  -11.31765
      H1     8.86799   -4.49420  -10.95803

