30
frame 4 | Written by MDAnalysis XYZWriter (release 2.4.3)
       H    -0.97944   -2.44830    4.34036
       O    -0.07606   -2.46046    4.49771
      H1     0.02874   -2.57531    5.45709
       H    -3.05525    1.64937    3.61569
       O    -3.76969    2.29709    3.65861
      H1    -4.49440    2.01157    3.09141
       H    -5.50840   -0.37095    5.85715
       O    -5.19076   -1.27531    5.65089
      H1    -5.81027   -1.72716    5.07053
       H    -4.58672   -0.85266   -0.03493
       O    -5.15075   -0.93978    0.82313
      H1    -6.04021   -1.18587    0.51815
       H    -3.63380   -1.19032    4.86574
       O    -2.85471   -0.95418    4.41554
      H1    -2.42805   -0.29645    5.00433
       H    -5.91222   -3.34913    3.22576
       O    -6.53213   -3.00974    3.92292
      H1    -7.40312   -2.91515    3.55432
       H    -2.93962   -4.82061    5.59733
       O    -1.94492   -4.63087    5.79645
      H1    -1.81284   -5.03660    6.69586
       H    -2.16663   -2.26519    0.89499
       O    -1.57760   -2.24420    0.09405
      H1    -2.13087   -2.78845   -0.45417
       H    -3.14460   -2.07036    2.87987
       O    -3.39506   -2.44250    1.99768
      H1    -4.03972   -1.83599    1.65794
       H    -2.90235   -4.27414    2.38536
       O    -2.58600   -5.19250    2.30164
      H1    -3.27153   -5.68323    2.69615

