30
frame 4 | Written by MDAnalysis XYZWriter (release 2.4.3)
       H     0.72705  -12.02187   11.79945
       O     0.65445  -12.22260   10.87010
      H1     0.36527  -11.42537   10.34207
       H    -1.22702  -16.21477   14.30722
       O    -1.66210  -16.86184   14.88998
      H1    -2.55660  -16.57643   14.90485
       H    -2.28727  -12.82684   15.45066
       O    -2.66929  -13.64199   15.08235
      H1    -3.20076  -13.46386   14.29080
       H    -4.06776  -15.34217    9.90655
       O    -3.77070  -14.46549   10.24042
      H1    -2.78937  -14.42228   10.19842
       H    -4.12850  -14.07473   11.95466
       O    -4.43550  -13.84987   12.87021
      H1    -5.23786  -14.42019   12.94741
       H    -1.09583  -14.20252   13.99877
       O    -0.39504  -14.72277   13.56305
      H1    -0.62240  -14.74518   12.64419
       H     1.29066  -15.42417   10.66671
       O     0.96515  -16.13984   10.06917
      H1     1.33823  -16.91309   10.53634
       H    -4.51011  -11.34628   11.42487
       O    -3.53673  -11.39116   11.17215
      H1    -3.51223  -10.72051   10.48921
       H     2.19490  -13.34052   10.80083
       O     3.09239  -13.64861   10.83899
      H1     3.52468  -13.42818   10.02136
       H    -0.64503  -14.93677   10.58911
       O    -1.19919  -14.31564   11.07729
      H1    -0.79877  -13.44033   10.98862

