30
frame 5 | Written by MDAnalysis XYZWriter (release 2.4.3)
       H   -15.60916   12.68878   17.95494
       O   -15.87626   11.75256   17.72468
      H1   -15.30321   11.21602   18.32816
       H   -14.64752   12.13963   16.33673
       O   -14.24254   12.73627   15.73681
      H1   -14.29079   13.68590   15.96823
       H   -11.19189   10.72295   17.47764
       O   -12.04344   11.17736   17.54626
      H1   -12.28225   11.41074   16.61967
       H   -13.39490   10.80681   18.83795
       O   -14.13506   10.51848   19.32442
      H1   -14.08338    9.56217   19.28670
       H   -12.47765    9.64119   14.50343
       O   -11.90354    9.15628   15.11134
      H1   -12.56770    8.86436   15.79111
       H   -14.27276    6.94084   16.05291
       O   -13.50192    6.94410   16.61820
      H1   -13.16893    6.02379   16.57598
       H   -12.53496   13.14140   17.53374
       O   -12.44462   14.02953   17.91209
      H1   -11.48674   14.11404   17.90792
       H   -14.78780   15.10958   18.71819
       O   -15.63166   14.63241   18.54225
      H1   -16.05150   15.37790   18.09643
       H   -13.86237    7.49897   18.28561
       O   -14.26735    7.62620   19.16956
      H1   -13.70682    7.21914   19.78121
       H   -10.80333    6.40182   18.10386
       O   -10.67805    7.19105   18.68616
      H1   -10.56084    7.91171   18.06691

