30
frame 5 | Written by MDAnalysis XYZWriter (release 2.4.3)
       H    15.02676  -18.50695   15.17850
       O    14.23500  -17.99077   15.08562
      H1    13.75557  -18.45155   14.40445
       H    16.73477  -16.60552   13.20370
       O    17.05614  -16.94109   12.34315
      H1    17.97777  -17.21072   12.51385
       H    18.37813  -13.31373   14.03140
       O    18.65004  -14.10820   13.59294
      H1    17.93548  -14.69950   13.78355
       H    16.24401  -18.73195   12.20808
       O    15.90610  -19.62429   12.31144
      H1    14.97703  -19.51999   12.70598
       H    16.81990  -18.46857    9.28478
       O    17.00579  -19.33411    9.61492
      H1    16.15565  -19.63672    9.98025
       H    18.82283  -18.91301    9.42070
       O    19.76126  -18.67611    9.68125
      H1    19.76443  -18.67471   10.69326
       H    13.52536  -16.07947   11.18757
       O    13.68237  -15.17298   10.97959
      H1    13.71472  -14.74073   11.89218
       H    17.85916  -14.68219   10.19580
       O    17.40579  -15.51474   10.05746
      H1    17.33883  -15.82778   10.99821
       H    16.44757  -15.83759   15.69628
       O    15.91412  -15.79827   14.91243
      H1    15.20084  -16.43293   14.93044
       H    16.74159  -16.50517    8.54999
       O    16.96482  -17.21351    7.86713
      H1    16.07856  -17.56823    7.71941

