30
frame 0 | Written by MDAnalysis XYZWriter (release 2.4.3)
       H    11.25138   -2.63836  -11.48894
       O    11.37005   -3.58100  -11.77080
      H1    12.02213   -3.70408  -12.41117
       H    10.23776   -2.21432  -13.59312
       O    10.83523   -2.05771  -14.30966
      H1    11.12003   -1.10352  -14.34706
       H    14.23745   -0.59376  -10.78689
       O    13.80190   -0.97113   -9.97859
      H1    12.81664   -1.22619  -10.11840
       H    10.40336   -4.11638   -8.77941
       O    10.30320   -3.64293   -7.89898
      H1     9.37349   -3.73183   -7.69801
       H    10.77432   -1.12396   -9.38474
       O    11.09272   -1.29789  -10.29000
      H1    10.51131   -0.62268  -10.73864
       H     7.94699   -1.69995  -12.17012
       O     8.62043   -1.25442  -12.76236
      H1     8.80243   -0.45657  -12.26414
       H     9.22799    1.74229  -11.55484
       O     9.78489    0.98259  -11.78102
      H1    10.59146    1.31220  -12.16179
       H    10.46700   -0.38760   -7.17212
       O     9.86741   -0.76935   -7.82076
      H1     9.78876   -1.70900   -7.58681
       H    10.22449   -4.71274  -11.14474
       O     9.58678   -5.25117  -10.71921
      H1     8.88788   -4.63820  -10.37113
       H    15.21414   -3.42748  -10.74813
       O    15.00713   -3.29946   -9.80370
      H1    14.41390   -2.53518   -9.86406

