30
frame 5 | Written by MDAnalysis XYZWriter (release 2.4.3)
       H     3.27273   -2.10147    6.71789
       O     3.60415   -3.00196    6.83398
      H1     2.90794   -3.50588    7.30210
       H     0.31328   -3.10389    2.83931
       O     0.96054   -2.80762    3.45849
      H1     0.49771   -2.25318    4.17687
       H     0.11488   -3.24094    8.10875
       O    -0.59277   -2.57364    8.18691
      H1    -0.45297   -2.03586    7.43336
       H    -0.35061   -1.35695   11.02310
       O     0.35656   -1.01285   10.47096
      H1     0.12648   -1.21927    9.57562
       H     0.73711   -0.40887    5.93346
       O    -0.11509   -0.76749    5.59436
      H1    -0.73780   -0.03248    5.71841
       H    -2.13173   -3.67133    8.07223
       O    -2.50659   -4.56840    7.97797
      H1    -3.41835   -4.56601    8.33465
       H     3.09385   -0.08195    6.15753
       O     2.54105   -0.48111    6.89757
      H1     2.76467   -0.25798    7.76469
       H    -4.77004   -2.12783    5.52744
       O    -3.92113   -1.75827    5.31900
      H1    -3.27585   -2.47853    5.50715
       H    -3.24584   -4.71403    5.15454
       O    -2.32086   -4.57861    5.34934
      H1    -2.21774   -4.65234    6.33883
       H     1.13215   -4.85702    6.91406
       O     1.40316   -4.38008    7.76933
      H1     1.42598   -5.04467    8.48124

