30
frame 5 | Written by MDAnalysis XYZWriter (release 2.4.3)
       H    13.36125  -10.80481   -0.40909
       O    12.71712  -10.14185   -0.78170
      H1    11.98807  -10.63414   -1.13384
       H    15.80105  -11.93738   -3.91202
       O    15.46767  -11.96660   -3.01080
      H1    15.41104  -10.98560   -2.78532
       H    14.19518   -9.40588   -1.52178
       O    14.88089   -9.26580   -2.19827
      H1    15.46220   -8.56745   -1.93783
       H    12.15273  -11.28958   -4.14253
       O    11.63817  -10.51139   -4.17888
      H1    11.10486  -10.70029   -4.94758
       H    12.36094   -8.72243   -4.12781
       O    13.03179   -8.10344   -3.87651
      H1    13.60971   -8.64316   -3.31452
       H    13.99926   -7.94710   -5.63921
       O    14.63901   -7.78553   -6.34568
      H1    14.83054   -6.84318   -6.19015
       H    15.39118   -6.94365    0.51869
       O    14.71879   -6.27444    0.64636
      H1    15.21998   -5.49344    0.56253
       H    12.67597  -13.53090   -3.77457
       O    13.18439  -12.80936   -4.12392
      H1    13.95071  -12.53960   -3.55503
       H    16.25943   -8.91245   -4.93702
       O    16.92833   -9.42588   -4.53513
      H1    17.39163   -8.76677   -3.97590
       H    17.43610   -7.36965   -0.58923
       O    16.69987   -7.97698   -0.25220
      H1    17.04296   -8.26863    0.61747

