30
frame 5 | Written by MDAnalysis XYZWriter (release 2.4.3)
       H    -6.73174  -10.49128  -10.92352
       O    -6.52200   -9.69411  -11.38113
      H1    -5.60222   -9.83803  -11.53515
       H    -9.55501  -13.50301  -12.70531
       O    -8.68354  -13.03446  -12.53602
      H1    -7.97920  -13.67671  -12.20176
       H    -6.83014  -15.55290  -12.26030
       O    -6.84181  -14.73496  -11.72123
      H1    -6.05994  -14.27162  -11.97570
       H   -10.47926  -11.86046   -9.88064
       O   -10.52589  -11.60460   -8.98100
      H1   -10.28992  -12.41554   -8.46265
       H    -5.49758  -16.04151   -7.06286
       O    -6.22386  -16.57746   -7.50355
      H1    -6.73684  -15.86196   -7.95599
       H    -3.46493  -12.48084   -8.39272
       O    -4.05777  -13.15573   -8.68216
      H1    -4.74823  -12.65713   -9.07607
       H    -7.25110  -14.93261   -9.86399
       O    -7.85080  -14.86376   -9.08077
      H1    -8.73455  -15.26296   -9.27986
       H    -6.31604  -12.41821   -5.77942
       O    -5.77212  -11.81991   -6.29072
      H1    -6.18854  -10.98904   -6.05809
       H    -7.93403   -9.02890   -8.77363
       O    -8.24973   -9.85524   -8.31384
      H1    -9.01820   -9.99825   -8.86248
       H    -6.99733  -12.88790   -9.42465
       O    -6.84867  -11.94329   -9.58987
      H1    -7.34769  -11.49133   -8.84529

