30
frame 6 | Written by MDAnalysis XYZWriter (release 2.4.3)
       H    -9.34890   -1.99427    2.31587
       O    -8.48248   -2.00419    2.70807
      H1    -8.24013   -1.07479    2.68617
       H   -13.36609   -2.94742   -1.52971
       O   -12.50346   -3.13348   -1.86329
      H1   -11.97368   -3.08991   -1.09167
       H   -10.37737   -5.28840    3.16371
       O   -10.32042   -4.91556    4.09853
      H1    -9.40077   -4.78073    4.38204
       H   -13.56227   -1.09079    2.71222
       O   -13.62125   -1.41258    1.77294
      H1   -14.22501   -2.16329    1.81316
       H    -8.19851   -6.25122    0.32682
       O    -8.43242   -5.35588    0.53926
      H1    -7.97222   -5.07966    1.34128
       H   -14.51999   -3.96671    2.73767
       O   -15.22416   -3.75026    2.05782
      H1   -15.24281   -4.41664    1.33474
       H   -12.37827   -4.68617    4.33957
       O   -13.26681   -4.37544    4.05242
      H1   -13.87537   -4.83191    4.67284
       H   -11.35873   -3.68740    1.13859
       O   -11.26074   -2.78624    0.79808
      H1   -12.04720   -2.28807    1.07495
       H   -11.71267   -5.90873    0.64758
       O   -11.12990   -5.43073    1.26075
      H1   -10.30316   -5.26558    0.78865
       H    -9.11988   -0.81921   -0.00200
       O    -9.77533   -0.10472   -0.16852
      H1    -9.26412    0.72789   -0.22313

