30
frame 5 | Written by MDAnalysis XYZWriter (release 2.4.3)
       H    11.75171   -2.23814   -0.19819
       O    11.84560   -2.27571   -1.20366
      H1    12.75543   -2.67070   -1.39786
       H     9.92310   -3.77453    5.67129
       O    10.61083   -3.32101    5.14495
      H1    10.80410   -3.87712    4.35724
       H    10.15320   -1.75174    4.87761
       O     9.65968   -0.91573    4.95838
      H1     8.74347   -1.22190    4.89760
       H    11.81422   -1.64668    2.03013
       O    11.16394   -2.02434    1.46457
      H1    11.03711   -2.94314    1.73319
       H    11.29453   -4.69390    1.81793
       O    10.75345   -4.50916    2.64074
      H1    10.03054   -5.05503    2.41508
       H    12.42263    1.45644    1.13993
       O    11.76692    1.89659    1.66502
      H1    11.51059    2.73177    1.25802
       H    13.34156   -1.50110    3.98062
       O    13.04187   -1.02856    3.21362
      H1    12.71824   -0.20682    3.56268
       H    15.04091   -2.68713    0.86615
       O    14.81054   -1.73403    1.04275
      H1    14.06372   -1.73339    1.64926
       H    10.49240    0.33070    4.29966
       O    10.99670    1.19724    4.14747
      H1    10.99957    1.25103    3.16111
       H     9.44153    0.18715    0.02231
       O     8.89880   -0.52892    0.36413
      H1     9.45373   -1.07178    0.97271

