30
frame 5 | Written by MDAnalysis XYZWriter (release 2.4.3)
       H    18.32940   -0.55165  -14.67709
       O    17.77482    0.21649  -14.51211
      H1    17.75904    0.72266  -15.36681
       H    18.95484   -2.65602   -8.12910
       O    19.34356   -1.72759   -8.07795
      H1    19.43352   -1.47538   -8.99068
       H    17.42295   -3.12813  -10.56523
       O    17.86278   -3.97031  -10.75483
      H1    17.30701   -4.60495  -10.32508
       H    19.07775    4.10526  -11.10540
       O    18.36730    4.08400  -10.46452
      H1    17.76163    3.50779  -10.93968
       H    16.66463   -1.98758   -8.92278
       O    16.71359   -1.45381   -9.75004
      H1    15.86334   -1.68723  -10.18555
       H    15.40210    1.19192  -12.96712
       O    14.90778    0.48059  -13.25845
      H1    13.92906    0.55581  -13.18081
       H    16.72594    3.52519  -12.91321
       O    16.30811    2.85174  -12.31992
      H1    15.75290    3.49663  -11.83406
       H    19.01367    0.41747  -11.30503
       O    18.98933   -0.29275  -10.65599
      H1    18.04413   -0.30468  -10.37985
       H    16.93884   -2.58598  -13.47622
       O    16.07273   -2.30791  -13.05446
      H1    15.96049   -1.37753  -13.23381
       H    18.62188    1.21652  -13.43079
       O    19.25916    1.78357  -13.04526
      H1    20.14576    1.54946  -13.30800

