30
frame 5 | Written by MDAnalysis XYZWriter (release 2.4.3)
       H     7.47240   16.77550    8.30032
       O     7.72144   16.01467    8.85092
      H1     7.67327   15.23561    8.28756
       H     2.61448   15.20385    6.75541
       O     3.08370   15.70408    7.48266
      H1     3.13072   16.64955    7.34285
       H     3.87105   10.80891    6.67788
       O     2.99612   10.74196    6.98471
      H1     3.07758   11.20695    7.84540
       H     2.41275   13.24422    5.31557
       O     1.92331   13.54708    6.07078
      H1     2.07693   12.77240    6.66377
       H     9.17212   16.36321    7.21308
       O     9.66627   15.82594    6.60090
      H1     9.12585   15.61840    5.84558
       H     7.44728   15.04939    3.36212
       O     7.67623   15.37692    4.27706
      H1     6.94849   14.91212    4.76085
       H     2.45771   14.84552   10.85332
       O     3.21198   14.85791   10.25169
      H1     2.96620   15.22530    9.40728
       H     5.83073   10.76183    5.68719
       O     5.65469   11.27208    6.47628
      H1     6.26947   10.97482    7.16758
       H     6.25253   15.65708    9.95640
       O     5.87323   15.14843   10.70996
      H1     4.90361   15.02966   10.56566
       H     5.94618   13.27265    6.01396
       O     5.97435   14.22173    6.11259
      H1     5.16169   14.56055    6.50915

