30
frame 5 | Written by MDAnalysis XYZWriter (release 2.4.3)
       H     2.61035   11.61133   -6.41459
       O     3.00253   11.77570   -7.29645
      H1     3.49633   12.58973   -7.19176
       H     3.23841   16.99925   -3.39065
       O     3.29072   16.03726   -3.20091
      H1     4.14846   15.93577   -2.73530
       H     0.81962   13.97311   -7.33817
       O     0.37708   14.01811   -8.20881
      H1     1.01127   13.74334   -8.85028
       H     0.12201   11.59058   -4.73446
       O     0.84395   11.22674   -5.30046
      H1     0.42430   10.79961   -6.07412
       H     4.43266   11.45803   -4.62022
       O     4.80364   10.57886   -4.44640
      H1     4.07176   10.14499   -3.92806
       H     5.85812   14.10258   -4.12630
       O     6.68247   14.40429   -4.58095
      H1     6.83640   15.31189   -4.23637
       H     4.02804   17.53695   -6.30964
       O     4.59449   17.36630   -5.59716
      H1     4.23613   16.54362   -5.21207
       H     3.33732   14.03532   -3.53847
       O     3.74739   13.41070   -4.20683
      H1     3.09576   13.38922   -4.91363
       H     5.76888   14.15752   -6.67370
       O     5.04816   13.82662   -7.26493
      H1     5.61519   13.37449   -7.96580
       H     1.12160   14.81733   -5.34557
       O     1.38479   13.97871   -5.66072
      H1     0.79800   13.29608   -5.32577

