30
frame 5 | Written by MDAnalysis XYZWriter (release 2.4.3)
       H    -6.46791    4.37914   11.03887
       O    -5.97868    4.85739   11.78088
      H1    -5.48213    4.16175   12.18589
       H    -7.97774    0.84354   11.77426
       O    -8.01257   -0.16937   11.78654
      H1    -7.14741   -0.41925   12.15129
       H   -10.16202    4.27388    7.58548
       O   -10.01822    3.57334    8.25853
      H1    -9.10946    3.66075    8.58116
       H    -8.65266    3.80168   11.24565
       O    -8.90310    3.05286   11.84264
      H1    -9.63420    2.69099   11.32154
       H    -8.02651    1.25195   14.27009
       O    -7.41368    2.06679   14.17656
      H1    -7.98498    2.77290   13.79326
       H    -8.92444    5.91719   12.55116
       O    -9.34429    6.49323   11.92204
      H1    -9.94146    5.80737   11.55545
       H    -7.59578    5.29117    9.40612
       O    -7.50867    4.33468    9.45921
      H1    -6.87075    4.05344    8.83654
       H   -11.01426    3.95782    9.73833
       O   -11.25742    4.46869   10.54249
      H1   -11.97237    3.97834   10.92004
       H    -7.46001    6.08066   14.15922
       O    -7.78772    5.27373   13.76262
      H1    -7.15006    5.10395   13.04474
       H    -7.95725    6.94919   10.61715
       O    -7.50774    7.00909    9.77154
      H1    -6.63971    7.24427   10.00661

