30
frame 6 | Written by MDAnalysis XYZWriter (release 2.4.3)
       H     1.39056   12.00598  -12.83541
       O     1.25248   11.83216  -11.87584
      H1     0.32037   11.60001  -11.80150
       H     2.57104   15.11534  -13.75061
       O     3.42729   15.25431  -14.14452
      H1     3.52890   14.47368  -14.75289
       H    -1.32881    9.66866  -13.87934
       O    -0.94589   10.12476  -14.69060
      H1    -1.63187   10.57224  -15.14749
       H     0.38759   11.93492  -18.55032
       O     0.30734   12.90853  -18.32939
      H1    -0.26253   12.87861  -17.53627
       H     1.87655    8.91807  -15.62271
       O     2.72392    9.35507  -15.59235
      H1     3.00780    9.20667  -14.66706
       H     3.82471   12.44741  -16.71392
       O     3.65772   12.11837  -15.83648
      H1     3.19518   11.25670  -15.96162
       H    -0.65877   13.13742  -15.46543
       O    -1.29262   13.30007  -16.15249
      H1    -1.95589   13.91192  -15.79588
       H     1.51852   12.15030  -15.31635
       O     0.89085   12.43922  -14.67196
      H1     0.21328   11.75033  -14.63048
       H     2.08596   13.30743  -18.31150
       O     3.06306   13.15538  -18.42683
      H1     3.14072   12.35991  -18.99163
       H     2.15775   10.16764  -12.58364
       O     2.43795    9.27051  -12.51158
      H1     1.88731    8.89752  -11.89115

