30
frame 5 | Written by MDAnalysis XYZWriter (release 2.4.3)
       H    10.80674   18.69208   -6.32529
       O    10.89250   18.31444   -7.20669
      H1    11.35373   17.48390   -6.93855
       H     7.40184   17.23651   -2.18438
       O     6.73181   16.60550   -2.41610
      H1     6.79094   15.91297   -1.64256
       H    10.15124   14.32502   -7.59841
       O    11.02916   14.67517   -7.64209
      H1    11.36537   15.09373   -6.80417
       H    12.79346   15.13885   -1.64881
       O    12.56120   14.32901   -2.16018
      H1    11.64311   14.41249   -2.39947
       H     5.85812   14.10258   -4.12630
       O     6.68247   14.40429   -4.58095
      H1     6.83640   15.31189   -4.23637
       H    10.37941   16.44929   -1.85036
       O    10.79960   17.02426   -1.20685
      H1    10.13310   17.78983   -1.08128
       H     9.66287   15.14421   -3.53086
       O     9.88717   14.72070   -2.72058
      H1     9.16236   14.16268   -2.39407
       H     9.18721   15.91166   -5.67181
       O     9.81330   16.14988   -4.98762
      H1     9.68900   17.09591   -4.84753
       H    10.91227   19.20491   -3.93485
       O    10.21834   18.91465   -4.56705
      H1     9.73161   19.66607   -4.78315
       H    13.25932   15.82111   -5.63690
       O    12.56641   16.44514   -5.81022
      H1    12.21214   16.56349   -4.91485

