30
frame 6 | Written by MDAnalysis XYZWriter (release 2.4.3)
       H   -17.73831   16.39211  -13.84761
       O   -17.89623   16.17562  -14.75279
      H1   -18.09108   16.96641  -15.29315
       H   -15.35089   19.78557  -16.45172
       O   -14.62724   19.25599  -15.98883
      H1   -14.78187   18.33436  -16.15761
       H   -18.65072   19.61024  -12.12995
       O   -19.08127   18.96994  -12.68588
      H1   -19.61962   18.33064  -12.11938
       H   -15.98414   18.81113  -12.38385
       O   -16.48770   17.99291  -12.49785
      H1   -17.37523   18.44434  -12.53791
       H   -19.33765   13.99626  -11.89850
       O   -18.78183   13.97582  -11.08806
      H1   -18.79515   14.90172  -10.78970
       H   -16.43939   18.56703  -10.29791
       O   -16.68143   18.28906   -9.42444
      H1   -16.40135   19.00057   -8.85484
       H   -18.44802   18.42890  -17.13540
       O   -17.98689   18.37498  -16.24666
      H1   -17.13785   18.26488  -16.60044
       H   -18.31382   17.45116   -9.49529
       O   -18.88748   16.69794   -9.52153
      H1   -19.13346   16.53408   -8.60827
       H   -15.59019   16.67512   -9.42414
       O   -15.01756   16.22154   -8.81986
      H1   -14.50988   15.53021   -9.17892
       H   -15.89463   16.17364  -14.93662
       O   -15.16121   16.63228  -14.52292
      H1   -15.53749   17.24869  -13.87619

