30
frame 6 | Written by MDAnalysis XYZWriter (release 2.4.3)
       H     8.33031    8.13509   11.98071
       O     8.71168    7.64264   11.27740
      H1     8.32944    8.14984   10.56502
       H     5.23561   12.25159   14.12105
       O     5.89348   12.14133   14.85958
      H1     5.83479   11.25644   15.20920
       H     3.51671   12.68758   13.02318
       O     4.21810   12.10162   12.76550
      H1     4.08053   11.93796   11.84717
       H     6.04039   11.71416   10.95599
       O     6.71933   11.00501   10.94733
      H1     7.45115   11.40320   11.37392
       H     8.75904   12.09510   13.10954
       O     8.93003   11.75924   12.17142
      H1     9.47396   10.98166   12.30789
       H     8.27213   11.28447    8.03255
       O     7.49305   10.71861    8.23512
      H1     7.27500   10.92777    9.17520
       H     4.26564    7.06472   12.11696
       O     4.33631    7.94483   11.80792
      H1     5.16680    8.30183   12.10113
       H     6.48959    9.23398   13.82819
       O     6.51136    9.13777   12.87952
      H1     6.34547   10.00771   12.48650
       H     3.14141    9.30556   12.48474
       O     2.62893    9.95645   13.04294
      H1     3.35353   10.52785   13.31223
       H     8.14149    9.42771   15.00223
       O     7.32216    9.79574   15.41811
      H1     7.35476    9.36340   16.26145

