30
frame 6 | Written by MDAnalysis XYZWriter (release 2.4.3)
       H   -14.51999   -3.96671    2.73767
       O   -15.22416   -3.75026    2.05782
      H1   -15.24281   -4.41664    1.33474
       H   -17.22262   -9.16645    3.53155
       O   -17.26449   -9.63378    2.69345
      H1   -16.56857   -9.26053    2.13092
       H   -12.37827   -4.68617    4.33957
       O   -13.26681   -4.37544    4.05242
      H1   -13.87537   -4.83191    4.67284
       H   -11.91630   -6.48496    8.08695
       O   -12.69909   -6.75984    7.60796
      H1   -12.44027   -6.95136    6.64673
       H   -17.53912   -4.96509    4.41694
       O   -17.58944   -4.05154    4.21755
      H1   -16.69191   -3.92581    3.82063
       H   -16.99722   -1.32039    5.08127
       O   -16.80978   -1.98414    5.78062
      H1   -17.20165   -2.81814    5.44954
       H   -17.11550   -5.81680    1.62996
       O   -16.42752   -6.39704    1.88591
      H1   -16.55515   -7.27351    1.53846
       H   -15.96881   -6.33749    5.20122
       O   -16.74866   -6.59419    4.66484
      H1   -16.43777   -6.75706    3.75294
       H   -14.10404   -6.05232    6.72869
       O   -14.77863   -5.57648    6.11102
      H1   -14.82272   -4.76925    6.61828
       H   -18.55853   -6.75632    5.74419
       O   -19.46935   -6.55559    5.58651
      H1   -19.57290   -6.38039    4.64237

