30
frame 6 | Written by MDAnalysis XYZWriter (release 2.4.3)
       H   -17.65712  -14.89140   -4.55656
       O   -18.64722  -14.85860   -4.61388
      H1   -18.94119  -15.79973   -4.54186
       H   -17.03293  -11.47183   -5.43091
       O   -16.90385  -11.23897   -4.51365
      H1   -17.70473  -10.70359   -4.38900
       H   -13.47875  -10.29702   -4.83094
       O   -12.91517  -11.03090   -4.44024
      H1   -13.56766  -11.60920   -4.09003
       H   -19.57583  -15.10176   -7.39592
       O   -18.91883  -14.44263   -7.16329
      H1   -18.67676  -14.65443   -6.23416
       H   -15.76122  -12.11524   -3.67606
       O   -14.94610  -12.69552   -3.49601
      H1   -15.06914  -12.91369   -2.56313
       H   -13.81342  -13.47383   -6.54065
       O   -13.29292  -14.23137   -6.19003
      H1   -12.32894  -14.00386   -6.42991
       H   -14.36121  -12.61677   -8.45601
       O   -14.38839  -12.07390   -7.61052
      H1   -15.34358  -12.06847   -7.54421
       H   -15.54386  -13.99540   -4.72335
       O   -16.01071  -14.78628   -5.00350
      H1   -15.40816  -15.54120   -4.90413
       H   -17.91508  -11.90612   -7.56306
       O   -17.12151  -11.62217   -7.10962
      H1   -17.17957  -10.62922   -7.11350
       H   -12.90200  -14.08425   -4.31924
       O   -12.14901  -13.97857   -3.68894
      H1   -12.26391  -14.77794   -3.16809

