30
frame 7 | Written by MDAnalysis XYZWriter (release 2.4.3)
       H     1.82733   15.48376   -1.90888
       O     1.04413   15.00066   -1.63025
      H1     0.25385   15.48403   -1.91303
       H     3.79725   18.81622   -4.09209
       O     3.45079   18.64310   -3.15427
      H1     2.57747   19.04880   -3.13679
       H     3.60092   18.99163    0.35250
       O     2.93302   19.22441    0.98798
      H1     2.12187   18.73394    0.84147
       H     7.07589   18.32137   -3.45714
       O     6.67372   17.41883   -3.19019
      H1     6.91089   17.24255   -2.22725
       H     3.24432   16.85442   -2.73225
       O     3.31395   15.97528   -2.48269
      H1     3.88747   15.87929   -1.70305
       H     5.91102   18.66879   -0.79167
       O     4.95582   18.88768   -0.70948
      H1     4.57410   18.80501   -1.55493
       H     4.50325   18.23042   -6.22098
       O     5.02541   18.53980   -5.45467
      H1     5.30501   17.70821   -5.09762
       H     4.49669   14.34862   -3.97953
       O     5.25339   13.76789   -4.20214
      H1     5.32747   13.80032   -5.13812
       H     2.21724   14.46359   -3.79106
       O     2.11782   13.87158   -4.55948
      H1     2.24489   12.96582   -4.28974
       H     4.34249   15.33431    0.61347
       O     4.70866   15.13247   -0.26505
      H1     5.68614   15.21929   -0.24962

