30
frame 6 | Written by MDAnalysis XYZWriter (release 2.4.3)
       H     9.02718  -11.99486    9.55238
       O     9.22239  -12.86218    9.13777
      H1     8.61725  -13.46708    9.64427
       H    11.66351  -16.66872   12.13751
       O    12.15149  -17.03531   11.40626
      H1    11.56665  -17.64556   10.96138
       H     8.76134  -13.47446    7.39471
       O     8.21962  -14.04055    6.82033
      H1     8.45123  -13.80214    5.89141
       H     9.27662  -17.36594    9.14534
       O     9.34460  -17.79793    9.97501
      H1     8.77119  -17.33711   10.51528
       H    12.59612  -14.63024    9.31362
       O    12.39145  -14.91983    8.40650
      H1    12.80471  -14.31157    7.75309
       H    13.15243  -16.59954    8.18739
       O    13.67769  -17.34814    7.85102
      H1    13.70388  -17.94673    8.57568
       H    10.00733  -19.13053    5.05364
       O     9.29801  -18.64523    5.44924
      H1     9.56162  -18.20369    6.22132
       H     9.21263  -15.71012    7.44872
       O     9.88355  -16.44545    7.60084
      H1    10.76052  -16.00450    7.66989
       H     6.87808  -15.25668    7.38620
       O     6.68194  -15.97926    8.00545
      H1     5.74121  -16.21456    7.93141
       H    11.22098  -12.23156    7.93289
       O    12.03144  -11.66458    7.97624
      H1    12.22953  -11.33430    7.10890

