30
frame 7 | Written by MDAnalysis XYZWriter (release 2.4.3)
       H    -7.59425    1.30369   11.53721
       O    -6.98644    0.45669   11.52296
      H1    -6.28309    0.62430   12.16310
       H   -10.35527    4.89942    7.36800
       O   -10.32947    3.97244    7.62429
      H1    -9.42471    3.96953    8.07857
       H    -8.34582    2.86997    9.99572
       O    -8.82808    2.43659   10.69665
      H1    -9.62741    2.90951   10.79751
       H    -8.73721    5.46095   12.56512
       O    -9.35171    5.96008   12.00057
      H1    -9.98752    5.27879   11.68622
       H    -7.77317    5.20650    9.27840
       O    -7.91375    4.28300    8.95590
      H1    -7.14676    4.28038    8.40900
       H   -11.97993    4.05148   11.02314
       O   -11.17189    3.80494   11.51580
      H1   -11.52617    3.75344   12.42477
       H    -6.79838    5.53893   13.51816
       O    -7.26753    4.75092   13.20529
      H1    -6.69371    4.23704   12.65354
       H   -10.86272    0.29345    9.37010
       O   -10.05476    0.59865    8.93409
      H1    -9.59910    1.31507    9.46232
       H    -6.64047    1.58021    8.24525
       O    -6.18817    1.09578    8.99739
      H1    -6.80311    0.98324    9.74842
       H    -4.25647    3.02944   10.65709
       O    -4.34640    3.27287    9.69574
      H1    -5.01138    2.60535    9.45648

