30
frame 0 | Written by MDAnalysis XYZWriter (release 2.4.3)
       H   -12.73023   -8.59126   17.13647
       O   -12.88012   -7.87543   17.81119
      H1   -13.38914   -8.34168   18.46295
       H   -10.90235   -9.90633   16.07403
       O   -11.48310  -10.39752   16.76381
      H1   -12.30179  -10.45329   16.30227
       H   -14.29664   -9.65240   15.43841
       O   -14.28531  -10.30722   16.18174
      H1   -15.17912  -10.22622   16.53967
       H   -15.10884  -12.32848   16.35889
       O   -15.73549  -13.01344   16.54552
      H1   -15.53074  -13.62192   15.79296
       H   -13.61827  -11.66476   14.94317
       O   -13.29832  -12.30967   14.35236
      H1   -12.31676  -12.14795   14.30311
       H   -15.63255   -8.18774   19.33042
       O   -16.58142   -7.98882   19.36402
      H1   -16.89968   -7.21570   18.78600
       H   -17.20940  -10.06180   16.47898
       O   -16.76210   -9.87740   17.33596
      H1   -17.16529   -9.07006   17.68961
       H   -17.29855  -11.12454   18.75333
       O   -17.57257  -11.27683   19.64435
      H1   -17.32473  -12.19446   19.80950
       H   -18.70676  -10.41847   14.19452
       O   -18.43516   -9.79196   14.89754
      H1   -18.02292   -9.15126   14.28140
       H   -14.47601   -9.43905   13.16312
       O   -14.38510   -8.80807   13.88474
      H1   -13.59217   -8.24941   13.72355

