30
frame 7 | Written by MDAnalysis XYZWriter (release 2.4.3)
       H     7.02165   11.17557   -1.35179
       O     6.23804   10.62017   -1.19843
      H1     5.92712   10.32211   -2.03626
       H     8.81162    9.78786    3.84554
       O     9.56329    9.80746    3.17271
      H1     9.57489   10.72027    2.93846
       H    10.02453    9.75312    0.87640
       O     9.76207    9.84640   -0.06921
      H1     9.54106    8.96196   -0.37758
       H     6.55054   14.57025    3.39820
       O     7.15463   14.94481    4.01236
      H1     6.59117   15.08687    4.72490
       H     6.37727   10.14852    3.49832
       O     6.56382    9.55174    4.26026
      H1     5.95140    8.85290    4.20506
       H     8.67627   12.28213   -1.97144
       O     8.47344   12.19453   -1.02245
      H1     8.97724   11.42788   -0.84576
       H     7.48390   11.74989    1.96419
       O     6.59201   11.39042    2.08278
      H1     6.53427   10.62954    1.53833
       H    10.02128   15.49024    1.35797
       O     9.10912   15.33360    1.69896
      H1     9.06275   14.36432    1.91375
       H     9.79914   12.70498    2.91790
       O     9.23347   12.53428    2.10422
      H1     9.75489   12.58400    1.24312
       H     5.23539   12.44311    2.64902
       O     4.77910   13.17346    3.09782
      H1     4.05256   12.79781    3.58850

