30
frame 6 | Written by MDAnalysis XYZWriter (release 2.4.3)
       H     0.30874   -0.32531   18.54268
       O     0.62918   -0.68972   17.70200
      H1     1.32967   -1.29918   18.01973
       H     4.34028    2.88153   14.79040
       O     4.44578    1.95777   14.62404
      H1     3.71508    1.62238   15.19336
       H     5.24810   -0.98214   16.82696
       O     5.85399   -0.85350   16.06634
      H1     6.20179   -1.77021   15.95343
       H     0.05135    1.03993   14.86285
       O     0.11261    1.84633   15.38555
      H1    -0.38356    1.80357   16.20112
       H     0.16499   -1.94448   14.83344
       O     0.24776   -0.98862   14.94300
      H1     0.58176   -0.83787   15.83457
       H     2.69095    1.63913   19.49397
       O     3.54887    1.39102   19.12431
      H1     3.98730    2.30259   18.95131
       H    -1.88575    2.89637   17.79600
       O    -1.10927    2.27914   17.83898
      H1    -0.55589    2.61911   18.55826
       H     2.09198    4.96270   17.83754
       O     2.48545    4.94576   16.93164
      H1     2.35079    3.95287   16.76716
       H     1.66743    1.83514   16.12056
       O     2.54603    2.01368   16.57167
      H1     2.51073    1.56430   17.38307
       H     5.92246    3.40520   17.89639
       O     5.62315    3.61880   18.78145
      H1     6.41385    3.58295   19.34860

