30
frame 7 | Written by MDAnalysis XYZWriter (release 2.4.3)
       H   -18.46263    0.96946   10.42278
       O   -19.26780    1.19582   10.82718
      H1   -18.95353    1.67519   11.59391
       H   -16.40778    2.59515    7.34402
       O   -17.27079    2.12986    7.27946
      H1   -17.95930    2.58809    7.76780
       H   -16.46227   -2.67350   12.53318
       O   -16.25734   -2.18251   11.71400
      H1   -17.09536   -1.70231   11.58353
       H   -16.41040    2.58679   13.62327
       O   -16.43382    3.37630   14.13445
      H1   -15.98196    3.94639   13.51976
       H   -19.38075    2.25075   14.01050
       O   -18.82975    2.46465   13.22809
      H1   -18.00748    2.86453   13.53591
       H   -15.25414    1.05235   12.38829
       O   -15.63195    1.82857   11.94563
      H1   -15.93133    1.49239   11.02000
       H   -17.20288    0.95937    8.84209
       O   -16.80255    0.67285    9.69321
      H1   -16.21772   -0.13748    9.56964
       H   -17.98973   -2.90240    9.96577
       O   -18.07185   -3.19778    9.08350
      H1   -18.75297   -2.58011    8.74489
       H   -19.39700   -0.70817   11.15505
       O   -18.84202   -1.46217   11.44120
      H1   -19.00677   -1.61352   12.43561
       H   -18.13335   -1.08436   14.58643
       O   -18.80754   -1.67436   14.26602
      H1   -19.63353   -1.42370   14.68368

