30
frame 6 | Written by MDAnalysis XYZWriter (release 2.4.3)
       H   -16.79229  -17.51740   15.76122
       O   -16.26970  -17.65552   14.90869
      H1   -16.71295  -18.46333   14.53097
       H   -15.12542  -18.84549   11.10808
       O   -14.98830  -18.38021   11.91673
      H1   -14.08277  -18.04242   11.80846
       H   -19.25781  -14.97876   11.75871
       O   -18.85590  -14.91202   12.65493
      H1   -19.48627  -14.35563   13.11667
       H   -15.28119  -13.98292    9.18823
       O   -15.96993  -14.69908    9.17522
      H1   -15.95632  -15.19795   10.00511
       H   -15.35471  -12.48848   12.53143
       O   -15.25570  -11.71464   12.01153
      H1   -16.06794  -11.51324   11.49556
       H   -14.89892  -14.71723   13.23754
       O   -14.37989  -14.03254   13.66047
      H1   -14.68424  -14.14357   14.55931
       H   -17.40715  -13.22724    9.28753
       O   -17.98630  -12.48765    9.11647
      H1   -17.98658  -11.90234    9.87803
       H   -18.59345  -17.04018   13.44722
       O   -19.29873  -17.71534   13.40508
      H1   -18.97871  -18.38118   14.03095
       H   -17.10320  -15.73404   12.10629
       O   -16.10013  -15.84481   12.13517
      H1   -15.91394  -16.81085   12.04146
       H   -17.62950  -14.51687   14.17605
       O   -17.02699  -14.68272   14.93282
      H1   -16.76826  -15.58377   14.81191

