30
frame 6 | Written by MDAnalysis XYZWriter (release 2.4.3)
       H   -12.42369    1.41045   18.42218
       O   -11.54630    1.58352   18.07498
      H1   -10.86301    1.20258   18.58379
       H   -14.45111    1.90170   18.55795
       O   -14.32970    1.02943   18.17469
      H1   -14.58582    0.41881   18.90049
       H   -17.94158    0.23252   18.67605
       O   -18.13204   -0.12660   19.52178
      H1   -18.58540   -0.98015   19.34784
       H   -14.94663    4.23069   18.37663
       O   -14.13969    3.75278   18.66348
      H1   -13.36767    4.09016   18.21930
       H   -13.05983   -0.86591   17.85816
       O   -12.46627   -1.60876   18.19972
      H1   -12.03035   -1.90994   17.38348
       H   -16.10932    4.48942   16.36790
       O   -15.95786    3.62188   16.01664
      H1   -16.55223    3.58665   15.27063
       H   -11.38964    3.40628   17.68752
       O   -11.71489    4.35057   17.63119
      H1   -11.48330    4.67597   18.56201
       H   -17.22543    1.92186   17.22380
       O   -16.79325    1.11440   17.13885
      H1   -15.95575    1.14956   17.55222
       H   -16.63935    0.89514   15.60712
       O   -16.62058    0.85251   14.65736
      H1   -15.74833    0.69606   14.24511
       H   -11.67764    1.17046   16.15572
       O   -11.60372    0.65859   15.36157
      H1   -12.22095   -0.09120   15.49505

