30
frame 7 | Written by MDAnalysis XYZWriter (release 2.4.3)
       H     9.51377   11.12553   -8.03575
       O     9.84063   12.03602   -8.27583
      H1     9.63025   12.56249   -7.49753
       H     7.60207   12.58079   -5.86421
       O     8.49314   12.74579   -5.54528
      H1     8.37559   13.60213   -5.09469
       H    10.10522   12.34045  -10.24906
       O    10.26996   12.96122  -10.95193
      H1    10.47469   12.36551  -11.72575
       H     9.82491   15.51354   -9.13087
       O     9.27870   16.02768   -9.76191
      H1     9.77313   16.28498  -10.57160
       H    10.32858    8.90622   -8.79407
       O    10.53069    8.72845   -9.72882
      H1    10.80346    7.79400   -9.78140
       H    13.28045   11.98875   -7.91063
       O    12.79725   11.19595   -8.18547
      H1    11.86376   11.30711   -7.98586
       H    11.41486   13.84189   -8.49099
       O    11.18528   14.75122   -8.33240
      H1    12.11479   15.09638   -8.38655
       H     9.71853    9.16873   -6.53624
       O     9.39902    9.30384   -7.44607
      H1     8.70382    8.68408   -7.68654
       H    10.79754   14.75372   -6.22903
       O    11.00981   15.35510   -5.47247
      H1    10.59493   16.21144   -5.47213
       H     5.83679   12.85442  -10.05219
       O     6.81989   12.68909   -9.97871
      H1     6.91136   12.43752   -9.07935

