30
frame 7 | Written by MDAnalysis XYZWriter (release 2.4.3)
       H   -10.61671   19.88136   18.15301
       O   -10.86571   18.94602   17.96527
      H1   -10.35603   18.63987   17.18035
       H   -11.46125   15.90395   18.88152
       O   -12.04742   15.26670   18.39995
      H1   -12.73570   15.81359   17.98866
       H    -7.91011   16.63723   19.25644
       O    -7.00805   16.98539   19.17782
      H1    -6.99460   17.27072   18.22566
       H   -13.34206   18.13204   17.54487
       O   -13.15272   17.63485   16.74592
      H1   -12.34764   17.87508   16.25041
       H   -16.54409   17.69367   16.28504
       O   -15.86209   17.05380   16.24260
      H1   -14.93880   17.43559   16.38242
       H   -10.24171   15.59523   15.98088
       O   -10.59778   14.72067   16.25488
      H1   -11.07243   14.88072   17.09485
       H    -8.75274   17.30753   16.06693
       O    -9.70420   17.53129   15.90753
      H1    -9.84349   17.44741   14.96057
       H   -10.10362   17.04452   20.24704
       O    -9.95226   16.84752   19.30651
      H1   -10.20705   17.67892   18.84322
       H    -9.81775   18.18520   12.63783
       O   -10.45358   17.69507   13.25612
      H1   -10.97852   18.45761   13.53118
       H    -6.72315   17.37705   15.64547
       O    -7.14085   17.64567   16.44860
      H1    -6.62836   18.38046   16.75595

