30
frame 6 | Written by MDAnalysis XYZWriter (release 2.4.3)
       H   -18.14806  -13.43422  -10.78691
       O   -17.31689  -13.17495  -11.24633
      H1   -17.01490  -12.32236  -10.82802
       H   -17.57893  -15.63182   -8.18019
       O   -17.03464  -16.34566   -8.52307
      H1   -16.77150  -16.11225   -9.42239
       H   -17.65712  -14.89140   -4.55656
       O   -18.64722  -14.85860   -4.61388
      H1   -18.94119  -15.79973   -4.54186
       H   -17.95493  -17.47008   -7.23625
       O   -18.41329  -18.13660   -6.70965
      H1   -18.95123  -17.65206   -6.07024
       H   -17.03293  -11.47183   -5.43091
       O   -16.90385  -11.23897   -4.51365
      H1   -17.70473  -10.70359   -4.38900
       H   -19.57583  -15.10176   -7.39592
       O   -18.91883  -14.44263   -7.16329
      H1   -18.67676  -14.65443   -6.23416
       H   -14.36121  -12.61677   -8.45601
       O   -14.38839  -12.07390   -7.61052
      H1   -15.34358  -12.06847   -7.54421
       H   -15.54386  -13.99540   -4.72335
       O   -16.01071  -14.78628   -5.00350
      H1   -15.40816  -15.54120   -4.90413
       H   -17.91508  -11.90612   -7.56306
       O   -17.12151  -11.62217   -7.10962
      H1   -17.17957  -10.62922   -7.11350
       H   -15.14064  -15.76155   -8.46180
       O   -14.22814  -15.75040   -8.57327
      H1   -13.81418  -15.48717   -7.70069

