30
frame 7 | Written by MDAnalysis XYZWriter (release 2.4.3)
       H    -0.86259   16.45909   -3.19914
       O    -1.32911   16.24444   -2.38640
      H1    -1.57683   17.13010   -2.04084
       H    -5.20331   18.89417   -2.38091
       O    -5.85225   19.58805   -2.07828
      H1    -5.81051   20.40674   -2.58412
       H    -7.23862   16.32580   -1.76242
       O    -6.76413   16.07405   -0.94933
      H1    -6.41115   15.16597   -1.20643
       H    -3.15642   16.08283   -5.53009
       O    -3.90589   16.69009   -5.49958
      H1    -4.44427   16.54885   -4.71484
       H    -7.69805   16.96918   -4.15903
       O    -7.94309   17.24856   -3.26387
      H1    -7.48954   18.07500   -3.15008
       H    -5.36616   19.39790   -0.26412
       O    -4.89664   18.88663    0.42645
      H1    -4.53431   19.53197    1.08298
       H    -1.32761   18.36167   -0.17895
       O    -2.06074   18.48059   -0.82885
      H1    -2.88053   18.36468   -0.31828
       H    -5.03490   13.33446   -1.50733
       O    -5.50989   13.62682   -0.64360
      H1    -4.90339   13.94212    0.00795
       H    -3.67478   16.80646   -2.79946
       O    -4.57704   17.08713   -2.65998
      H1    -4.86225   16.63187   -1.85761
       H    -3.53415   19.71155   -5.09442
       O    -3.21400   19.28969   -5.90363
      H1    -3.43308   18.36606   -5.79332

