30
frame 0 | Written by MDAnalysis XYZWriter (release 2.4.3)
       H   -15.04700   -5.86086    9.32931
       O   -15.70501   -6.53980    9.28091
      H1   -16.53341   -6.12539    8.96906
       H   -17.69841  -10.54162   10.55703
       O   -17.49722  -11.27124   11.15353
      H1   -18.12638  -11.25788   11.89438
       H   -16.40550   -9.10782    3.80477
       O   -15.46444   -9.03869    3.59101
      H1   -15.40148   -8.67228    2.68073
       H   -14.40791   -8.98513    7.45707
       O   -14.94279   -9.15423    8.22591
      H1   -15.11174   -8.26861    8.54693
       H   -17.73349   -7.65291   10.50240
       O   -18.06758   -8.42188   10.96754
      H1   -18.94974   -8.57438   10.64310
       H   -17.86618   -8.70719    6.79198
       O   -17.52887   -9.05757    7.61661
      H1   -16.55847   -9.02067    7.66126
       H   -19.28578  -12.40450    7.07756
       O   -19.60789  -11.50953    7.38339
      H1   -18.81495  -10.96223    7.37920
       H   -18.56033   -8.17243    4.23958
       O   -17.84924   -8.17570    4.93483
      H1   -17.41558   -7.33639    4.85423
       H   -16.88403  -11.09890    6.06714
       O   -16.02613  -11.45278    6.22442
      H1   -15.47995  -10.74326    6.66066
       H   -16.12051   -5.08771    5.25408
       O   -17.02504   -5.23354    5.51468
      H1   -17.14173   -5.07564    6.45758

