30
frame 7 | Written by MDAnalysis XYZWriter (release 2.4.3)
       H     8.45025  -19.09601   -4.22806
       O     7.73221  -19.67143   -4.44509
      H1     6.97139  -19.07323   -4.47877
       H    13.25797  -16.46619   -2.85427
       O    12.47955  -15.94326   -2.76471
      H1    12.23024  -15.69359   -3.65537
       H    13.57568  -17.21760   -5.66738
       O    12.77043  -17.75546   -5.33316
      H1    12.03944  -17.41839   -5.91068
       H     8.17594  -16.58619   -0.27456
       O     8.23482  -15.79580    0.27262
      H1     8.19603  -16.19584    1.18192
       H    10.24634  -18.89306   -0.03807
       O    10.87560  -19.28458    0.61232
      H1    10.99984  -18.52517    1.23649
       H     8.88917  -18.02480   -1.79231
       O     8.05294  -18.15773   -1.35238
      H1     7.36259  -18.03555   -1.96936
       H    14.74431  -17.98944   -1.55818
       O    15.07041  -17.05750   -1.47498
      H1    15.48559  -17.05209   -0.59739
       H     7.22480  -15.83995   -2.97212
       O     6.47599  -16.43638   -3.09286
      H1     5.93663  -16.17356   -2.41475
       H    10.58430  -19.06949   -2.69590
       O    10.51619  -18.13051   -2.75826
      H1    11.27629  -17.64234   -3.10284
       H    11.16802  -16.43814   -1.08878
       O    10.95536  -16.14004   -0.19486
      H1    10.05980  -15.73328   -0.35324

