30
frame 7 | Written by MDAnalysis XYZWriter (release 2.4.3)
       H    -7.06659   -7.13333    9.77285
       O    -8.01272   -7.20299    9.69105
      H1    -8.22073   -8.14754    9.66391
       H   -10.03154   -8.52186   15.77612
       O    -9.56408   -9.30367   15.68010
      H1    -9.57811   -9.49139   14.77347
       H    -9.56930  -10.03125    9.69507
       O    -8.88867   -9.75251    9.06267
      H1    -8.32312  -10.46937    8.79412
       H    -8.73795  -12.50606   12.07228
       O    -8.25315  -12.42751   12.92601
      H1    -7.43935  -11.85023   12.79320
       H   -11.46502  -10.37778   10.94770
       O   -10.54635  -10.60921   10.92113
      H1   -10.57210  -11.39544   10.32080
       H   -11.74957  -10.98821   13.53486
       O   -10.78813  -11.23173   13.60610
      H1   -10.41221  -11.29408   12.69580
       H    -7.24584   -7.68344   15.33274
       O    -7.38542   -7.12485   14.54962
      H1    -8.05559   -7.62362   14.02203
       H    -8.97818   -5.88700   10.69535
       O    -9.68046   -5.58351   11.30796
      H1    -9.27590   -4.90822   11.85329
       H   -12.33685   -6.81837    9.86758
       O   -11.98107   -7.22191   10.66020
      H1   -11.29330   -6.63217   10.93380
       H    -9.36456   -7.32016   12.35709
       O    -9.47436   -8.10595   12.83678
      H1    -9.11547   -8.76835   12.22926

