30
frame 7 | Written by MDAnalysis XYZWriter (release 2.4.3)
       H    -0.86259   16.45909   -3.19914
       O    -1.32911   16.24444   -2.38640
      H1    -1.57683   17.13010   -2.04084
       H     3.60092   18.99163    0.35250
       O     2.93302   19.22441    0.98798
      H1     2.12187   18.73394    0.84147
       H    -2.79246   18.12598    2.82760
       O    -1.91880   18.40719    3.13563
      H1    -1.31992   17.65997    2.85948
       H     0.10426   18.77256    4.68655
       O     0.28434   17.92426    5.08331
      H1     1.18368   18.15215    5.45408
       H     3.70357   14.57926    2.65020
       O     3.28621   15.16589    2.04921
      H1     3.37537   16.08935    2.42143
       H    -0.81734   15.43405    2.85137
       O    -0.16896   16.13165    2.96769
      H1    -0.32245   16.48147    3.89263
       H     0.51408   18.19236    1.66554
       O     0.34101   17.90562    0.77861
      H1     0.43912   16.93922    0.77184
       H    -1.32761   18.36167   -0.17895
       O    -2.06074   18.48059   -0.82885
      H1    -2.88053   18.36468   -0.31828
       H     4.49238   17.90943    3.45448
       O     3.61525   17.56206    3.14112
      H1     3.39579   18.09867    2.40649
       H     0.49282   13.38189    3.69087
       O     1.29873   13.89099    3.55931
      H1     1.06749   14.72859    3.10298

