30
frame 8 | Written by MDAnalysis XYZWriter (release 2.4.3)
       H    -2.90585    3.43304   -2.59405
       O    -3.44754    3.09257   -3.34851
      H1    -4.33726    3.34898   -3.19042
       H    -0.83198    3.73262    0.06016
       O    -0.46254    3.07236   -0.59599
      H1    -0.44609    2.18698   -0.13468
       H     1.83860    5.04148    0.94072
       O     2.44980    4.46389    1.33354
      H1     2.25706    3.55831    0.96331
       H     1.74783    0.95876    0.04009
       O     2.21515    1.74377    0.30999
      H1     2.85532    1.29471    0.89374
       H    -2.01498    5.81840    0.18331
       O    -1.75398    4.98676    0.61259
      H1    -1.73928    5.15085    1.58989
       H     0.21185    6.19621   -1.72704
       O     0.25513    5.30736   -2.10661
      H1    -0.05063    4.68583   -1.41067
       H     0.17572    2.28413   -2.73301
       O    -0.39024    2.31286   -3.51728
      H1     0.05998    2.05468   -4.29457
       H    -1.02211    0.27438    1.23348
       O    -1.34252    1.17741    1.08234
      H1    -2.28295    0.93015    1.22671
       H    -4.51142    3.97786   -0.01262
       O    -3.72306    3.61340   -0.46199
      H1    -2.95173    4.03932   -0.03409
       H     0.53057    2.06691    2.68658
       O     0.74740    1.89652    3.56573
      H1     1.17081    1.03765    3.57941

