30
frame 8 | Written by MDAnalysis XYZWriter (release 2.4.3)
       H    15.28012   -1.23982   -3.78883
       O    15.85865   -0.92646   -3.07475
      H1    15.28063   -0.28272   -2.54761
       H    19.03603   -1.84332   -8.39217
       O    19.89563   -1.60137   -8.84457
      H1    20.05709   -2.24450   -9.57844
       H    16.87609   -4.60336   -3.64524
       O    16.74311   -5.00318   -4.49786
      H1    15.87454   -5.38288   -4.58532
       H    17.25907   -2.72735   -8.01259
       O    16.91793   -2.45798   -8.90050
      H1    16.05630   -2.84328   -8.84936
       H    18.27279   -2.94323   -2.52657
       O    17.37467   -3.29154   -2.62195
      H1    16.86003   -2.47451   -2.62710
       H    17.56397    0.36677   -5.61361
       O    17.68435    0.43361   -4.69758
      H1    16.85137    0.06870   -4.27046
       H    13.67716   -2.27226   -4.73074
       O    14.56960   -2.51975   -5.12443
      H1    14.58421   -3.48399   -5.19753
       H    16.72637   -0.63368   -7.79751
       O    16.64537    0.08071   -7.21734
      H1    15.74184   -0.03851   -6.98119
       H    16.68062   -2.33073   -6.01484
       O    17.42728   -2.80772   -6.40061
      H1    17.50106   -3.62817   -5.90850
       H    16.74424   -5.93391   -8.81589
       O    16.30093   -5.33245   -8.17795
      H1    15.36094   -5.39547   -8.23373

