30
frame 8 | Written by MDAnalysis XYZWriter (release 2.4.3)
       H    -9.71161   17.46707   -9.84992
       O   -10.19511   17.62984  -10.71701
      H1    -9.55986   17.60014  -11.43573
       H   -11.01369   15.31864  -13.95961
       O   -11.01738   14.45896  -13.53325
      H1   -10.50715   13.83654  -14.10515
       H    -6.20197   14.87727  -10.92526
       O    -6.75274   15.61358  -10.77015
      H1    -6.29879   16.05206  -10.03385
       H    -8.83532   18.60072  -13.45842
       O    -8.33247   17.90554  -12.99435
      H1    -7.77047   17.41510  -13.62596
       H    -9.02765   16.60716   -7.37401
       O    -9.76819   16.77006   -7.99809
      H1   -10.54234   17.04570   -7.41332
       H   -13.34298   18.04136  -10.16087
       O   -13.63025   17.17664  -10.45595
      H1   -12.85328   16.57757  -10.65815
       H   -11.40825   17.27074  -15.49398
       O   -11.54885   17.36189  -14.53302
      H1   -12.47964   17.30808  -14.28954
       H   -10.52327   18.88917  -14.49994
       O    -9.83109   19.48623  -14.85049
      H1   -10.09934   20.37193  -14.63440
       H   -11.72596   14.86524  -11.80694
       O   -11.73460   15.33423  -10.96127
      H1   -11.18513   16.08505  -11.16524
       H   -10.00608   14.64380  -11.09684
       O    -9.23212   14.15592  -10.85823
      H1    -8.49364   14.85970  -10.92725

