30
frame 0 | Written by MDAnalysis XYZWriter (release 2.4.3)
       H    14.04359  -17.57453  -16.18017
       O    13.20759  -17.17373  -15.97390
      H1    12.78264  -17.66464  -15.20281
       H    10.82119  -16.67791  -14.31199
       O    10.99496  -17.49335  -13.92513
      H1    10.93709  -17.31098  -12.95972
       H    13.02004  -19.59592  -11.36478
       O    12.24928  -19.58884  -11.96439
      H1    12.71015  -19.55667  -12.81347
       H    11.85471  -16.05594   -9.76566
       O    11.42028  -16.10707   -8.91964
      H1    10.45366  -16.22642   -9.13751
       H     9.94423  -14.03966  -14.36540
       O    10.15090  -14.87825  -14.72269
      H1    10.12985  -14.73225  -15.72614
       H    12.10209  -15.36974  -11.95885
       O    11.18516  -15.56529  -11.68096
      H1    10.66383  -15.43692  -12.47369
       H     9.39436  -13.95931  -12.08673
       O     9.23102  -13.01973  -12.30052
      H1    10.05318  -12.55873  -12.10796
       H     8.79715  -18.60097  -13.09534
       O     8.29402  -18.39941  -12.28232
      H1     7.65743  -19.11907  -12.14710
       H     7.70913  -15.28788  -12.73652
       O     8.22580  -15.50930  -11.98510
      H1     8.55529  -16.39669  -12.18059
       H    14.42892  -16.17651  -10.11540
       O    13.98888  -16.98762  -10.44071
      H1    14.09951  -17.01438  -11.35052

