30
frame 0 | Written by MDAnalysis XYZWriter (release 2.4.3)
       H     9.39162   -0.08089    2.64324
       O     8.92305   -0.03553    3.46604
      H1     8.75847    0.92464    3.58941
       H    14.06779   -1.04719    5.89847
       O    14.06855   -1.23713    6.80674
      H1    13.20126   -1.54680    7.00022
       H    12.24325   -0.20749    2.94649
       O    12.58428    0.69452    3.13273
      H1    12.62169    0.63545    4.08260
       H     8.54444   -1.62880    8.63101
       O     7.66528   -1.37863    8.98732
      H1     7.41450   -2.20612    9.45980
       H    10.92591   -1.92257    8.20063
       O    10.22367   -1.56412    7.65520
      H1     9.88626   -2.34670    7.19686
       H    11.59733   -0.91348    9.92831
       O    11.22003    0.03671    9.99898
      H1    10.43252    0.06935    9.38120
       H     7.30156   -2.18814    4.65283
       O     6.80882   -1.34447    4.57165
      H1     7.41410   -0.74216    4.09635
       H     8.43166   -4.36394    6.35777
       O     9.07489   -3.69033    6.17014
      H1     8.94147   -3.56148    5.19331
       H    10.42918   -0.58317    6.10070
       O    10.59758    0.11026    5.51212
      H1    10.01999   -0.08516    4.73172
       H    10.63892    2.08594    5.67696
       O    10.24231    2.94381    5.64838
      H1     9.31482    2.78248    5.40447

