30
frame 7 | Written by MDAnalysis XYZWriter (release 2.4.3)
       H   -20.05935   15.59178  -17.97707
       O   -19.67836   14.75596  -18.31027
      H1   -18.70880   14.90033  -18.21931
       H   -17.80695    6.57306  -17.04611
       O   -17.33554    5.80394  -17.36844
      H1   -16.46133    5.89588  -17.02115
       H   -17.97891   10.81964  -19.31994
       O   -18.16910   10.40085  -18.50482
      H1   -17.68253    9.59280  -18.58535
       H   -12.43401   13.50388  -17.30971
       O   -13.24539   13.90526  -17.70142
      H1   -13.19856   13.60463  -18.62656
       H   -17.74422    8.11200  -15.63668
       O   -17.49977    8.64355  -16.45509
      H1   -16.52136    8.85888  -16.30673
       H   -14.62840   10.26283  -15.73534
       O   -14.88363    9.41496  -15.34136
      H1   -15.61126    9.65606  -14.76496
       H   -18.00810   12.04442  -15.67524
       O   -17.29941   12.26955  -16.32584
      H1   -17.54529   11.79328  -17.15680
       H   -14.28735   12.70982  -16.93254
       O   -14.61303   11.91703  -16.50989
      H1   -15.61900   12.02385  -16.57044
       H   -12.63600   10.14466  -18.79514
       O   -11.96405   10.12680  -18.06942
      H1   -12.48824   10.18885  -17.27625
       H   -16.22621   15.14659  -17.29153
       O   -16.59923   15.93377  -16.88167
      H1   -16.71431   15.73186  -15.95428

