30
frame 7 | Written by MDAnalysis XYZWriter (release 2.4.3)
       H    -3.86353  -19.40242  -14.57917
       O    -4.76819  -19.05640  -14.62986
      H1    -5.14280  -19.00780  -13.71811
       H    -5.68157  -18.47679  -16.13647
       O    -6.27117  -18.10531  -16.82007
      H1    -6.60033  -18.88303  -17.27088
       H    -3.70032  -16.87058  -13.90687
       O    -4.15566  -16.00964  -13.66702
      H1    -3.87746  -15.75996  -12.76469
       H    -5.76014  -15.37365  -14.76318
       O    -6.18328  -14.89937  -15.50709
      H1    -5.61055  -14.13945  -15.62075
       H    -4.42121  -18.19880  -17.97544
       O    -3.53771  -18.18084  -18.29749
      H1    -3.52898  -17.53001  -19.00698
       H    -2.86318  -12.81834  -17.61112
       O    -3.65491  -13.35040  -17.70493
      H1    -3.60310  -14.21687  -17.26148
       H    -0.39184  -16.47186  -18.55737
       O    -0.54491  -15.72807  -19.13416
      H1     0.17174  -15.84692  -19.82323
       H    -2.14488  -15.78264  -16.30449
       O    -2.63939  -15.07924  -15.81170
      H1    -3.23031  -15.46776  -15.11941
       H    -6.60631  -16.49534  -18.02488
       O    -7.11887  -15.72453  -18.06832
      H1    -7.12531  -15.49511  -17.15329
       H    -1.59476  -18.29268  -15.78585
       O    -1.68907  -17.52856  -16.38052
      H1    -2.34472  -17.83734  -17.01518

