30
frame 7 | Written by MDAnalysis XYZWriter (release 2.4.3)
       H     7.07589   18.32137   -3.45714
       O     6.67372   17.41883   -3.19019
      H1     6.91089   17.24255   -2.22725
       H    11.03868   17.82310   -2.13093
       O    11.10702   18.48340   -2.87158
      H1    11.96082   18.87417   -2.71865
       H     8.09734   15.57341    0.25208
       O     7.77595   15.26931   -0.63252
      H1     7.66094   14.33038   -0.55391
       H    12.46622   15.74976    1.50749
       O    11.84825   15.50579    0.82134
      H1    11.55646   16.31670    0.36403
       H    12.55482   14.44359   -0.31094
       O    12.96240   13.72601   -0.87663
      H1    12.25254   13.73439   -1.62337
       H    10.05078   16.20735   -0.99715
       O    10.21752   17.05961   -0.63953
      H1     9.42704   17.63850   -0.51462
       H    10.79930   15.01951   -3.69950
       O    10.48647   14.60243   -2.83532
      H1     9.48319   14.64037   -2.93247
       H    12.25492   18.89007   -0.07045
       O    13.06371   18.32227   -0.09980
      H1    13.46856   18.72196    0.76450
       H     7.49820   18.62103    0.74664
       O     7.84039   18.48201   -0.14565
      H1     8.07845   19.40106   -0.40065
       H    10.02128   15.49024    1.35797
       O     9.10912   15.33360    1.69896
      H1     9.06275   14.36432    1.91375

