30
frame 8 | Written by MDAnalysis XYZWriter (release 2.4.3)
       H     3.92590   -5.75891   -5.61267
       O     3.17692   -5.22629   -5.97912
      H1     3.30769   -5.36436   -6.93280
       H     3.13240   -4.56757  -10.58849
       O     2.63045   -4.59926  -11.37538
      H1     1.87024   -5.18605  -11.38603
       H     0.44343   -6.24236   -9.34115
       O     0.22443   -5.39111   -8.93489
      H1     0.85670   -5.21754   -8.27343
       H     4.57714   -3.66619   -9.15407
       O     3.81279   -4.24019   -9.09798
      H1     3.09356   -3.59854   -8.84768
       H     6.75335   -6.47725   -7.73189
       O     6.02873   -5.87954   -7.44306
      H1     6.21644   -5.03754   -7.86446
       H     7.49063   -3.13970   -8.41285
       O     6.96042   -3.72092   -8.92861
      H1     6.97018   -3.38349   -9.84434
       H     2.71282   -1.55598  -11.95015
       O     3.22338   -2.25448  -12.36058
      H1     2.90291   -3.07355  -11.90591
       H     4.62415   -6.73512   -8.83160
       O     4.77290   -7.42843   -9.47521
      H1     5.50387   -8.03181   -9.35267
       H     4.14894   -1.57118   -7.23318
       O     3.81332   -0.96163   -7.91506
      H1     3.64723   -0.13964   -7.41501
       H     2.35957   -1.89255   -7.97635
       O     1.77702   -2.66088   -8.15951
      H1     1.08174   -2.39320   -8.74008

