30
frame 7 | Written by MDAnalysis XYZWriter (release 2.4.3)
       H    10.49640    7.10633   17.73099
       O    10.97434    6.31202   17.85463
      H1    10.57937    5.50522   17.58535
       H    10.24257    9.55947   17.77318
       O     9.80902    8.67335   17.64562
      H1     9.13611    8.69755   18.29828
       H     7.56347   12.50918   18.02002
       O     7.59889   11.49829   18.06756
      H1     8.38056   11.35360   18.59076
       H     9.91140    6.75564   14.93110
       O    10.51019    5.97414   14.73635
      H1    10.04352    5.39574   14.09461
       H     9.22230    8.54868   16.08656
       O     8.86991    8.30281   15.21720
      H1     8.21556    7.60525   15.43190
       H    13.22213    7.81378   19.82338
       O    13.40653    7.67983   18.84458
      H1    12.67956    7.12131   18.46126
       H     6.73979    7.05426   19.07324
       O     7.60491    7.46006   19.35869
      H1     7.94591    6.81511   19.97732
       H     6.67581    8.75518   18.26476
       O     6.09867    9.26669   17.68742
      H1     6.57149   10.11325   17.62393
       H     7.25101    8.86802   15.04877
       O     6.29472    9.07080   14.88430
      H1     6.02785    9.22418   15.81631
       H    12.49628   10.80933   18.52117
       O    12.04930   10.09931   18.05045
      H1    12.53028    9.28051   18.28185

