30
frame 8 | Written by MDAnalysis XYZWriter (release 2.4.3)
       H    -7.34325    0.42627    6.33066
       O    -6.72437    1.09715    6.08850
      H1    -5.80895    0.67678    6.05941
       H    -9.96110    3.75219    6.59096
       O    -9.28661    3.13308    6.76290
      H1    -8.71639    3.62287    7.34880
       H   -11.88168   -0.95872    4.15626
       O   -10.89550   -0.98264    4.31063
      H1   -10.79954   -0.31204    5.03864
       H    -7.14606   -1.52550    5.33231
       O    -6.80591   -2.04356    4.60763
      H1    -7.43007   -1.93795    3.89306
       H    -7.80301    3.64571    5.83755
       O    -7.47564    4.39283    5.35931
      H1    -6.49208    4.20038    5.19218
       H    -9.95808    1.53531    6.71999
       O   -10.22439    0.65875    6.38552
      H1   -11.11533    0.38541    6.73826
       H    -7.30205    1.22485    4.26196
       O    -7.54629    0.84734    3.42809
      H1    -8.45890    0.98820    3.27423
       H    -4.05111   -0.06459    7.42337
       O    -4.34294   -0.24325    6.53005
      H1    -3.81141    0.26352    5.91263
       H    -8.54691   -0.74632    8.13038
       O    -7.74983   -1.13347    7.70917
      H1    -7.39783   -1.81749    8.26928
       H    -6.39727    1.38546    7.83514
       O    -6.21242    1.49879    8.79566
      H1    -6.98188    1.05779    9.26294

