30
frame 0 | Written by MDAnalysis XYZWriter (release 2.4.3)
       H     7.37115   18.96900    8.26867
       O     6.50965   19.18830    7.88417
      H1     5.95197   19.46686    8.58715
       H     8.56749   17.08693   11.34767
       O     8.75400   16.59750   10.46352
      H1     9.64419   16.27344   10.57528
       H     9.45622   18.15354    9.11063
       O     9.41602   18.50412    8.17808
      H1     9.64828   19.47238    8.34042
       H    12.04278   17.14270    6.34735
       O    12.98964   17.20164    6.18142
      H1    13.12961   18.00655    5.66457
       H     8.38108   15.25900    9.19036
       O     7.95570   14.68988    8.52963
      H1     8.64126   14.03091    8.26600
       H     8.30979   15.24055    6.61357
       O     8.58656   15.62851    5.78694
      H1     7.91177   16.29570    5.59189
       H    10.16760   17.91697    6.66681
       O    10.42455   17.64946    5.79798
      H1     9.79898   16.89388    5.62514
       H    11.61574   15.10506    9.26049
       O    11.50032   15.75235   10.00868
      H1    12.32493   16.25855    9.84400
       H     6.00618   16.33851    6.02307
       O     6.37468   17.17939    5.66516
      H1     6.55867   17.61905    6.52085
       H    10.74006   18.10192   12.36414
       O    10.61487   17.74555   13.26394
      H1    10.59635   18.53456   13.85469

