30
frame 8 | Written by MDAnalysis XYZWriter (release 2.4.3)
       H    -4.42292   15.81031  -15.03343
       O    -4.08756   15.10531  -15.62360
      H1    -4.53197   15.28979  -16.49267
       H    -1.54905   17.40130  -17.30628
       O    -0.79635   17.27573  -16.71498
      H1    -0.75000   16.30557  -16.67406
       H    -4.30862   16.80117  -18.20262
       O    -4.88554   16.09290  -17.97295
      H1    -4.83766   15.41828  -18.64281
       H    -0.18273   12.99552  -18.94532
       O    -0.42657   13.93456  -18.98436
      H1    -0.90238   14.04824  -18.08114
       H     2.80396   12.93785  -16.50795
       O     3.33499   13.23258  -15.74630
      H1     4.04602   12.58133  -15.56750
       H    -3.09653   18.83031  -18.23334
       O    -2.87848   17.91586  -18.20007
      H1    -2.58555   17.81703  -19.10995
       H    -1.31840   14.26063  -15.27119
       O    -1.20260   14.67542  -16.17954
      H1    -2.03024   15.16891  -16.19005
       H     1.61407   12.39060  -15.12539
       O     1.00303   12.15957  -14.40912
      H1     0.33771   11.52680  -14.70892
       H     1.38446   13.51632  -18.32010
       O     2.04706   12.83701  -17.99731
      H1     1.60960   12.01928  -18.20931
       H    -3.21959   10.57578  -18.35690
       O    -3.43369   10.32258  -17.43857
      H1    -3.96188   11.08872  -17.06825

