30
frame 9 | Written by MDAnalysis XYZWriter (release 2.4.3)
       H    13.24132    5.24002   15.63886
       O    13.01682    4.55939   16.23282
      H1    12.66434    3.91324   15.64430
       H    11.03340    3.16798   14.02487
       O    11.70290    2.66076   14.53243
      H1    12.42764    2.50274   13.97579
       H    14.46695    1.98533   13.30378
       O    13.79313    2.58114   12.90429
      H1    13.45851    2.16170   12.10898
       H    12.72641   -1.87417   13.21584
       O    12.66903   -0.94079   13.25908
      H1    11.71028   -0.81671   13.07702
       H    15.92156    0.25296   14.20463
       O    15.02670    0.34900   14.52849
      H1    14.53535   -0.10303   13.82343
       H    16.27163    1.64853    9.93592
       O    15.59688    2.32336   10.09630
      H1    14.70008    1.98697    9.84918
       H    16.52471    2.32427   11.73038
       O    16.94478    2.15978   12.56786
      H1    17.54155    1.40462   12.30219
       H    12.63656    5.60889   12.81346
       O    13.18360    5.26868   12.12112
      H1    13.46943    4.43848   12.49898
       H    14.96369    2.00511   15.88267
       O    15.28617    2.91711   16.12190
      H1    14.53254    3.47865   16.22760
       H    12.43170    2.23281    9.70380
       O    13.07302    1.52242    9.71508
      H1    12.69795    0.71539   10.06851

