30
frame 9 | Written by MDAnalysis XYZWriter (release 2.4.3)
       H   -11.49040   -9.82338  -13.40959
       O   -11.86040  -10.29239  -14.19408
      H1   -11.09670  -10.64448  -14.72879
       H   -15.68361   -9.88673  -14.66756
       O   -15.31659   -9.34067  -13.96006
      H1   -15.12751   -9.89367  -13.18152
       H   -14.42130  -10.36261  -17.20241
       O   -15.15675  -10.87048  -17.58981
      H1   -15.82289  -10.81658  -16.94736
       H   -10.06156  -12.36957  -15.30250
       O   -10.38659  -11.80686  -16.01423
      H1    -9.54170  -11.60486  -16.39754
       H   -14.89224  -12.62743  -15.94771
       O   -15.22039  -13.54190  -15.82161
      H1   -14.51895  -14.14518  -15.53872
       H   -11.84341   -8.10806  -16.58178
       O   -11.30704   -7.43663  -16.92941
      H1   -10.53387   -7.87979  -17.39889
       H   -12.38681  -10.80245  -19.54468
       O   -11.67977  -11.00331  -18.94942
      H1   -11.32755  -11.86986  -19.23247
       H   -12.47589  -11.85822  -13.77095
       O   -12.94864  -12.63541  -13.37032
      H1   -12.87455  -13.36987  -14.00784
       H   -10.40091   -7.36552  -15.24664
       O    -9.55755   -7.39108  -14.74538
      H1    -9.07736   -6.70293  -15.22016
       H   -12.13968  -10.46951  -17.15729
       O   -12.78641  -10.08316  -16.63129
      H1   -12.46650  -10.04973  -15.74324

