30
frame 0 | Written by MDAnalysis XYZWriter (release 2.4.3)
       H     5.59963   18.43647   15.15522
       O     5.29625   19.32712   14.87697
      H1     4.60077   19.40318   15.55278
       H     0.70659   19.15664   12.79603
       O     1.18842   19.46248   13.58755
      H1     1.56531   18.60922   13.93143
       H     3.02455   16.82206   13.09988
       O     2.30639   16.63750   13.74274
      H1     1.76733   16.04697   13.15517
       H     4.66533   17.91126   12.13570
       O     4.35260   16.97695   11.94036
      H1     4.92078   16.54698   11.27221
       H     4.23052   17.93274   17.64747
       O     3.70662   18.23137   16.89144
      H1     3.89919   17.57863   16.22029
       H     0.31633   17.05757   16.67610
       O     0.97075   16.99205   17.39516
      H1     1.81082   17.37011   17.03005
       H     5.39929   16.43722   19.22604
       O     5.00098   17.30795   19.41680
      H1     5.79203   17.81980   19.67391
       H     6.79075   16.35324   14.41484
       O     6.50014   16.83103   15.27732
      H1     5.92500   16.18678   15.72820
       H     7.67628   18.12342   15.99927
       O     8.30620   18.65102   16.45388
      H1     7.84866   19.45436   16.78083
       H     3.04714   15.43985   14.67092
       O     3.56450   14.90403   15.26768
      H1     3.05040   14.77658   16.06741

