30
frame 8 | Written by MDAnalysis XYZWriter (release 2.4.3)
       H    -2.53061  -14.15023   -5.08102
       O    -2.32358  -13.19985   -4.96350
      H1    -3.20405  -12.77662   -4.74318
       H    -6.83031  -18.70649   -5.82714
       O    -6.36725  -17.90271   -5.59343
      H1    -6.24381  -17.43074   -6.46909
       H    -5.29043  -15.90477   -7.28909
       O    -5.97469  -16.34132   -7.85046
      H1    -6.59449  -15.64840   -8.10105
       H    -4.75116  -11.51687   -3.89082
       O    -4.80677  -12.35708   -4.46493
      H1    -5.72586  -12.50069   -4.71998
       H    -3.97608  -14.27370   -7.04012
       O    -4.47096  -14.75182   -6.40158
      H1    -5.16570  -14.17990   -6.01143
       H    -2.99870  -15.66512   -5.66893
       O    -2.31508  -16.14374   -5.14238
      H1    -1.61270  -16.26364   -5.78083
       H    -2.35544  -13.09226   -7.71609
       O    -2.96935  -13.48960   -8.28701
      H1    -3.71145  -12.81134   -8.38472
       H    -5.55499  -13.91784   -3.34050
       O    -5.85358  -14.74021   -2.86274
      H1    -5.26195  -14.81461   -2.07016
       H    -7.98616  -13.33236   -5.37411
       O    -7.11227  -13.30003   -5.78037
      H1    -7.18768  -12.62620   -6.40918
       H    -5.79012  -13.33578   -9.18779
       O    -5.43230  -12.48651   -9.12423
      H1    -6.06712  -11.99343   -8.51697

