30
frame 9 | Written by MDAnalysis XYZWriter (release 2.4.3)
       H     8.13890   -6.52510  -17.51477
       O     8.86058   -7.04827  -17.88284
      H1     8.70315   -6.89360  -18.82741
       H     3.47430  -11.52200  -15.24364
       O     3.03193  -11.61645  -16.11294
      H1     2.27922  -12.20604  -16.14588
       H     4.41357   -5.41703  -18.15322
       O     5.08493   -5.95146  -18.55440
      H1     4.74560   -6.87561  -18.71560
       H     5.59305   -6.22401  -16.88473
       O     5.46764   -6.69752  -16.01483
      H1     5.37034   -5.99971  -15.31167
       H     2.77063   -9.89415  -16.45331
       O     3.17823   -8.99517  -16.45923
      H1     3.84776   -9.15910  -15.80498
       H     6.99546   -9.01000  -14.61320
       O     7.03027   -8.82775  -15.53386
      H1     6.46369   -8.03225  -15.58621
       H     4.21773   -9.02022  -18.04183
       O     4.64246   -8.68864  -18.86294
      H1     5.58832   -8.94708  -18.69825
       H     3.62282  -12.79810  -18.71779
       O     3.81899  -13.35230  -17.98440
      H1     3.75377  -12.71262  -17.22707
       H     7.07580   -9.68738  -17.19637
       O     7.36849   -9.71863  -18.13270
      H1     7.70944   -8.84472  -18.24360
       H     6.31293  -10.97664  -18.66981
       O     6.07771  -11.83476  -19.12336
      H1     5.57834  -12.33012  -18.49709

