30
frame 9 | Written by MDAnalysis XYZWriter (release 2.4.3)
       H    17.68935   13.89729   -5.04960
       O    16.84651   14.11123   -4.64444
      H1    16.38281   13.23766   -4.65224
       H    18.22338   16.37395   -7.22707
       O    18.95855   16.87370   -6.76952
      H1    18.98277   16.66467   -5.81671
       H    18.79201   17.44990   -3.63498
       O    19.19034   16.57696   -3.85471
      H1    18.75110   15.90516   -3.28311
       H    14.13185   17.97510   -0.69509
       O    14.80725   18.19455   -1.29747
      H1    14.61088   17.73222   -2.07309
       H    18.88766   19.94442   -5.95150
       O    18.18164   19.27545   -6.26185
      H1    18.60278   18.45574   -6.60125
       H    16.70062   17.12287    1.03657
       O    16.42128   17.98016    0.74309
      H1    15.83335   17.75605   -0.02816
       H    17.83381   18.39380   -0.31834
       O    18.59949   18.53851   -0.90884
      H1    18.15329   18.70983   -1.76278
       H    16.97420   18.38954   -3.98434
       O    17.65616   18.89501   -3.53095
      H1    18.03964   19.50080   -4.19768
       H    14.89410   17.27934   -4.66854
       O    15.67683   17.09501   -4.17376
      H1    16.09612   16.35635   -4.60981
       H    18.82606   12.57027   -6.13194
       O    19.21381   13.38014   -5.84404
      H1    19.52196   13.79854   -6.66162

