30
frame 8 | Written by MDAnalysis XYZWriter (release 2.4.3)
       H    13.40257  -18.12526   -5.19910
       O    12.44392  -18.36228   -5.11392
      H1    12.07143  -17.87129   -5.82052
       H    14.95051  -17.05080   -6.06940
       O    15.24168  -17.73738   -5.42095
      H1    15.39698  -18.45236   -6.08349
       H    12.79427  -19.86251   -8.67576
       O    13.54668  -19.34848   -9.08524
      H1    13.23793  -18.43965   -9.08128
       H     8.93428  -19.44845   -7.73465
       O     9.55235  -19.16875   -8.44773
      H1    10.10361  -19.94021   -8.51101
       H    10.10251  -17.48943   -7.17041
       O    10.78993  -16.83043   -6.88623
      H1    10.30619  -16.12564   -6.52201
       H    14.53547  -18.67496  -11.33270
       O    14.67520  -17.74508  -11.54625
      H1    14.13499  -17.63185  -12.33111
       H    13.57826  -16.09349   -8.53937
       O    12.77064  -16.32880   -8.95404
      H1    12.05566  -16.36836   -8.29242
       H    15.65605  -17.38544  -10.07106
       O    16.12107  -17.07514   -9.26172
      H1    15.99271  -17.83534   -8.65209
       H     9.96060  -19.04291  -10.30676
       O    10.06757  -19.25495  -11.24680
      H1    11.01989  -19.45524  -11.41284
       H    15.90466  -15.23195  -12.41926
       O    15.04617  -15.01052  -11.99248
      H1    14.89066  -15.74247  -11.41874

