30
frame 8 | Written by MDAnalysis XYZWriter (release 2.4.3)
       H    -0.42735  -16.43465    2.71999
       O     0.52283  -16.72059    2.83900
      H1     1.00676  -16.00390    2.39873
       H     4.58463  -18.07396    3.27222
       O     5.13361  -18.24514    2.45320
      H1     4.67284  -17.69451    1.80997
       H     4.27914  -18.02854    7.03746
       O     4.35943  -17.72161    7.93720
      H1     4.53995  -18.52794    8.45885
       H    -2.13925  -17.38064    4.69371
       O    -1.78994  -17.41979    5.58869
      H1    -0.81057  -17.62045    5.50430
       H     4.07029  -17.23509    4.92259
       O     3.86803  -18.20565    4.98440
      H1     2.90770  -18.19131    4.84139
       H    -0.30818  -15.54557    6.89422
       O     0.62394  -15.44669    6.69187
      H1     0.59602  -14.89640    5.93457
       H     0.44267  -18.70514    8.11856
       O    -0.10257  -19.13943    8.73472
      H1    -0.29944  -19.97714    8.29363
       H     4.58467  -15.01853    5.44432
       O     4.07788  -15.37090    4.68507
      H1     4.66379  -15.05581    3.95946
       H     3.55951  -16.29646    8.71993
       O     3.21407  -15.70206    9.39005
      H1     2.44900  -15.28024    9.00759
       H     1.04904  -17.13484    5.69093
       O     1.05166  -17.94044    5.15300
      H1     0.90366  -17.64886    4.26357

