30
frame 9 | Written by MDAnalysis XYZWriter (release 2.4.3)
       H    14.22568   -0.10380  -15.76247
       O    14.72774    0.43160  -16.46235
      H1    15.63259    0.54016  -16.14814
       H    17.52311    0.15035  -15.29374
       O    17.20118    1.00716  -15.55232
      H1    17.79691    1.20199  -16.28552
       H    14.20360   -3.09127  -14.97772
       O    14.34698   -2.13286  -15.21001
      H1    15.15816   -2.19784  -15.72121
       H    17.81976   -0.34390  -13.56777
       O    17.84623   -1.18779  -14.07668
      H1    18.54651   -1.76127  -13.74054
       H    17.08362   -4.18154  -17.16384
       O    16.92827   -3.27941  -17.42133
      H1    17.77701   -3.01758  -17.83685
       H    16.91479   -2.92081  -12.09662
       O    17.37756   -3.15344  -11.28208
      H1    17.16596   -2.48451  -10.60498
       H    19.59300   -1.51267  -17.19690
       O    19.54057   -1.98547  -18.03357
      H1    19.74447   -1.35909  -18.73684
       H    17.09312    3.84966  -15.25455
       O    17.37621    3.44367  -14.42916
      H1    17.41921    2.53425  -14.55976
       H    18.17681    2.17110  -11.72904
       O    18.50083    1.47431  -12.29759
      H1    19.42278    1.68924  -12.59855
       H    14.05984   -1.84941  -13.54578
       O    14.17146   -1.68449  -12.61033
      H1    14.31004   -0.77944  -12.55402

