30
frame 8 | Written by MDAnalysis XYZWriter (release 2.4.3)
       H   -16.26680   -6.50384  -13.98641
       O   -17.08105   -6.83992  -14.39138
      H1   -17.76329   -6.79546  -13.70998
       H   -17.10735   -3.44728  -13.46456
       O   -16.13573   -3.26513  -13.37400
      H1   -15.74490   -4.10411  -13.24175
       H   -13.29323   -5.49588  -12.15037
       O   -13.14972   -5.39241  -11.21242
      H1   -12.62096   -4.55419  -11.16404
       H   -12.93140   -9.55246  -14.07008
       O   -13.47519   -8.91019  -13.56151
      H1   -14.20847   -9.46583  -13.23623
       H   -10.30424   -6.52232  -13.29422
       O   -10.32814   -6.45913  -12.29457
      H1   -11.20350   -6.04691  -12.16100
       H   -12.22991   -3.36696  -13.37295
       O   -11.55230   -3.99053  -13.51576
      H1   -11.90576   -4.74695  -13.93998
       H   -14.94250   -5.98560  -17.10179
       O   -15.06851   -6.92921  -17.03213
      H1   -14.09719   -7.18488  -17.06410
       H   -11.79753   -7.09717  -15.67422
       O   -11.32649   -6.66385  -14.92898
      H1   -10.47222   -6.41838  -15.36573
       H   -15.05062   -7.39150  -10.60617
       O   -15.61513   -6.74332  -11.12980
      H1   -16.47556   -7.22136  -11.22640
       H   -14.01750   -7.10980  -13.70708
       O   -14.37372   -6.26865  -13.41975
      H1   -14.94658   -6.32615  -12.60922

