30
frame 0 | Written by MDAnalysis XYZWriter (release 2.4.3)
       H     6.99239   13.25622    4.34321
       O     7.14410   12.31128    4.63994
      H1     6.27904   11.91776    4.74828
       H    10.21593   10.03527    1.81782
       O    10.64279    9.41518    1.17291
      H1    11.45483    9.84494    0.92628
       H     8.37400    9.15285    4.24964
       O     8.09453    8.21129    4.16287
      H1     8.22950    7.92663    3.28487
       H     9.99055   10.07649    5.54750
       O     9.02629   10.20215    5.77108
      H1     8.75023   11.05284    5.39448
       H     9.70610   14.44827    5.07406
       O    10.25064   13.67458    4.93420
      H1    11.13897   13.84192    4.56813
       H     6.21067   14.98882    2.45377
       O     6.98999   14.35434    2.49936
      H1     7.14072   13.85613    1.61856
       H     4.97636   11.27663    3.50900
       O     4.79331   11.01187    4.45170
      H1     3.89397   10.71089    4.33350
       H     7.28711   12.29014   -0.14442
       O     7.60973   13.12921    0.22305
      H1     8.45172   13.31655   -0.10140
       H    12.73651   13.07087    1.11874
       O    11.85516   12.70064    1.45367
      H1    12.03938   11.97932    2.05170
       H     9.74774   12.21121    3.41038
       O     9.49965   11.45736    2.94448
      H1     8.56590   11.62760    2.85517

