30
frame 8 | Written by MDAnalysis XYZWriter (release 2.4.3)
       H     8.71555  -15.94237   18.38895
       O     9.24506  -15.45874   19.00535
      H1     9.67675  -14.71865   18.57389
       H    12.49098  -11.61202   15.31595
       O    13.40381  -11.40459   15.45873
      H1    13.44869  -10.54000   15.89032
       H    10.46340  -10.74814   16.08325
       O    10.42761  -10.44648   17.01744
      H1    10.25838  -11.24203   17.54368
       H    11.40291   -9.40862   18.21045
       O    11.64122   -8.72149   18.89431
      H1    11.07084   -8.97057   19.61792
       H    10.82360  -12.84572   19.57680
       O    10.64762  -12.84018   18.61872
      H1    11.50316  -12.78865   18.15930
       H     7.41731  -15.69821   15.49794
       O     8.14960  -15.38733   16.04117
      H1     7.77028  -14.62957   16.50931
       H    13.30280  -13.65778   17.97170
       O    13.58020  -12.75707   17.77545
      H1    13.38411  -12.50508   16.86544
       H    14.04676  -15.34277   19.56597
       O    13.78662  -15.47453   18.65337
      H1    14.63102  -15.34443   18.22338
       H     8.24610   -8.01299   17.64697
       O     8.26076   -8.91063   17.28901
      H1     9.10704   -9.37737   17.24420
       H     6.67565  -12.81695   17.89802
       O     6.62026  -13.76086   17.72292
      H1     5.70422  -13.86882   17.52778

