30
frame 10 | Written by MDAnalysis XYZWriter (release 2.4.3)
       H     1.99593   16.09642   16.31184
       O     1.54597   16.22165   17.14597
      H1     2.09639   15.65363   17.79202
       H    -4.84117   14.54551   18.02895
       O    -4.47034   14.04990   17.30077
      H1    -3.71848   13.65781   17.63071
       H    -1.25024   15.29288   18.43132
       O    -1.06478   16.16067   18.11314
      H1    -0.12612   16.14901   17.86376
       H    -1.22847   15.12579   16.62741
       O    -1.42532   14.55761   15.85248
      H1    -2.11277   15.11562   15.33765
       H     0.31840   19.06357   16.09875
       O     1.09423   19.15179   16.67855
      H1     1.23268   18.22151   16.89421
       H    -1.12624   19.29624   18.94085
       O    -1.91579   18.72230   18.69431
      H1    -1.65093   17.80790   18.60053
       H    -2.46561   19.23498   17.03203
       O    -2.68702   19.22805   16.06734
      H1    -2.62006   18.28560   15.80339
       H     3.92646   18.27714   18.60445
       O     3.32023   18.98371   19.01791
      H1     3.26150   18.88054   19.99606
       H    -4.92854   19.45704   19.21605
       O    -5.33438   18.61640   18.92535
      H1    -5.49976   18.83015   17.97754
       H    -2.91202   16.71459   13.71321
       O    -3.30816   16.63808   14.60336
      H1    -3.96746   15.96561   14.52219

