30
frame 10 | Written by MDAnalysis XYZWriter (release 2.4.3)
       H    16.86829  -12.18378  -17.39325
       O    17.70778  -12.06921  -16.96748
      H1    17.56203  -11.19329  -16.56806
       H    13.03445   -7.26200  -19.56596
       O    13.37795   -7.38129  -18.67412
      H1    14.08619   -8.05761  -18.74197
       H    20.20077   -6.88123  -16.11265
       O    19.43319   -6.33085  -16.34519
      H1    18.88366   -6.98297  -16.85929
       H    16.27501   -7.67469  -19.67577
       O    15.98477   -8.37357  -19.06462
      H1    15.66856   -9.01820  -19.71084
       H    11.63245   -8.49828  -16.18254
       O    12.54473   -8.24010  -16.26113
      H1    12.72925   -8.02916  -17.18798
       H    12.92989  -11.92443  -19.80615
       O    13.21118  -11.07500  -19.39307
      H1    12.40643  -10.63927  -19.03145
       H    17.18181   -8.63596  -17.75122
       O    17.85034   -8.50115  -17.03963
      H1    18.55994   -9.00080  -17.45057
       H    15.06342  -13.19185  -19.11208
       O    15.37907  -12.50786  -18.50524
      H1    14.61643  -11.84418  -18.65932
       H    16.38295   -7.91740  -15.60100
       O    15.57954   -8.18993  -15.13968
      H1    15.04740   -7.36948  -14.91130
       H    14.40072   -5.96387  -17.92877
       O    15.01484   -5.43877  -17.38043
      H1    14.68223   -5.66100  -16.55699

