30
frame 10 | Written by MDAnalysis XYZWriter (release 2.4.3)
       H     9.04717   -8.63607  -14.32962
       O     8.42629   -9.03911  -13.64477
      H1     8.66010   -9.99051  -13.83718
       H     7.40056   -6.79891  -12.44548
       O     7.97161   -5.96639  -12.66650
      H1     8.50506   -5.87198  -11.88938
       H     8.27411   -8.36440  -11.58984
       O     7.76511   -8.20832  -10.72522
      H1     8.35684   -7.56657  -10.33840
       H     5.87231   -6.21981  -16.95481
       O     5.02482   -6.40820  -16.57000
      H1     5.08126   -6.12558  -15.63769
       H     8.76676   -9.07376  -16.52069
       O     9.57679   -8.72226  -16.06708
      H1     9.43084   -7.73637  -15.93177
       H     6.92317   -8.99238  -14.40144
       O     6.15262   -9.20065  -14.96557
      H1     5.45954   -9.49639  -14.45039
       H     6.95334   -9.40102  -16.55179
       O     7.51805   -9.53886  -17.34911
      H1     7.26731   -8.85795  -17.96423
       H     4.68289   -5.81459  -12.74247
       O     5.33349   -6.14306  -13.37527
      H1     4.87712   -6.91910  -13.75570
       H    10.33871   -5.95981  -14.72725
       O     9.47380   -6.20634  -14.97207
      H1     9.03575   -6.35326  -14.15906
       H     8.96451  -11.39974  -12.84287
       O     9.02884  -11.54286  -13.86013
      H1     8.32211  -12.26664  -13.95876

