30
frame 10 | Written by MDAnalysis XYZWriter (release 2.4.3)
       H     2.68245   17.91087    5.25911
       O     2.09296   18.39572    5.93447
      H1     2.65059   19.18413    6.17982
       H     1.73518   15.14225    7.01510
       O     2.18564   15.87600    7.38375
      H1     2.00645   16.64341    6.87279
       H    -0.98302   17.60210    4.14660
       O    -0.51542   17.03580    4.79325
      H1     0.32179   17.51164    5.02395
       H     0.44033   13.77866    6.05687
       O     0.75208   13.52533    6.95699
      H1     1.33167   12.78635    6.85203
       H    -0.27315   14.27826    3.86339
       O     0.35858   14.58629    4.51431
      H1     0.01341   15.52630    4.72580
       H     5.21903   18.05350    3.96108
       O     5.93930   17.79317    4.58310
      H1     5.54472   17.07237    5.15072
       H     2.84353   15.38682   10.53979
       O     3.21327   16.02690    9.95065
      H1     2.67873   15.85291    9.15847
       H     2.10140   16.45182    3.66676
       O     2.93999   16.63145    4.23527
      H1     3.46868   15.83345    4.22688
       H     5.19532   15.01120    6.31045
       O     4.99206   15.97008    6.33877
      H1     4.01828   15.98383    6.44887
       H    -1.17919   17.69040    6.48736
       O    -1.71788   18.12556    7.15782
      H1    -2.00757   17.47798    7.81176

