30
frame 10 | Written by MDAnalysis XYZWriter (release 2.4.3)
       H     7.40530  -17.70082   17.40850
       O     8.26072  -17.21359   17.30364
      H1     8.04998  -16.56928   16.66131
       H     8.49457  -16.26022   19.09328
       O     9.11465  -16.29629   19.79672
      H1     9.53008  -15.39755   19.73292
       H     4.53577  -14.80071   19.19236
       O     4.95040  -15.65881   19.09111
      H1     5.77569  -15.29614   18.70552
       H     6.67532  -11.69646   19.12084
       O     6.51120  -11.60473   18.12725
      H1     7.00227  -10.82429   17.84840
       H     7.67130  -15.99480   14.94653
       O     8.16475  -15.19711   15.19477
      H1     7.78719  -14.76986   16.04683
       H     4.98477  -17.28521   18.18698
       O     5.51632  -18.08997   17.95503
      H1     4.84221  -18.70686   17.63710
       H     2.51985  -17.17991   18.52106
       O     2.50276  -16.59269   17.71055
      H1     2.42760  -17.11680   16.89693
       H     6.87813  -13.31101   17.60975
       O     6.92496  -14.29277   17.39458
      H1     6.04691  -14.58474   17.01089
       H     3.60871  -14.70362   16.93602
       O     4.38579  -14.84151   16.34365
      H1     4.24003  -14.26996   15.56785
       H     4.14968  -16.50175   15.75776
       O     4.14926  -17.15087   15.02328
      H1     3.63945  -16.63428   14.35305

