30
frame 10 | Written by MDAnalysis XYZWriter (release 2.4.3)
       H    13.50191  -18.54489   11.37444
       O    13.53864  -19.08747   12.20555
      H1    13.21624  -19.99738   11.98289
       H    17.53045  -16.84447   13.60896
       O    17.80024  -17.20921   12.73630
      H1    18.55318  -17.81030   12.89277
       H    16.77872  -18.71743   12.85523
       O    16.11142  -19.40510   12.92836
      H1    15.29625  -18.98183   12.55024
       H    15.13365  -19.08754   10.15155
       O    15.88747  -19.65316   10.21169
      H1    16.08031  -19.64500   11.14123
       H    11.74357  -19.68330    8.60454
       O    12.66023  -19.31832    8.61303
      H1    13.11564  -20.11057    8.86947
       H    17.53370  -18.77921    9.30390
       O    18.12429  -18.08950    8.93243
      H1    18.66246  -17.93810    9.69375
       H    13.73043  -16.25277   10.86011
       O    13.95518  -17.00952   10.32668
      H1    13.58746  -16.79098    9.42611
       H    13.52830  -18.79283    5.42699
       O    13.96996  -18.95662    6.32354
      H1    13.31252  -19.08732    7.01731
       H    17.56581  -16.59071    7.29630
       O    17.21469  -15.81257    6.90512
      H1    17.44776  -15.06937    7.50118
       H    16.05401  -14.65723    9.50955
       O    16.56992  -15.25866   10.03319
      H1    15.99700  -16.06388    9.87254

