30
frame 9 | Written by MDAnalysis XYZWriter (release 2.4.3)
       H    18.67614   -4.51304    6.72225
       O    17.91752   -3.90530    6.53367
      H1    17.50240   -3.91176    7.38809
       H    17.27624   -8.18801    4.22301
       O    16.81330   -9.05544    4.39753
      H1    16.67075   -8.94228    5.35632
       H    15.26064   -3.02783    5.03136
       O    15.42355   -3.96245    5.04486
      H1    16.32405   -4.05426    5.41432
       H    15.52914   -4.41184    8.22431
       O    16.19530   -4.09828    8.83300
      H1    16.41939   -4.86943    9.34063
       H    17.82064   -1.04120    5.08352
       O    17.23116   -0.75074    4.40152
      H1    17.03649    0.17743    4.44973
       H    18.22728   -3.75618    3.45775
       O    17.42144   -4.29484    3.20696
      H1    16.56115   -3.99941    3.61117
       H    13.56152   -4.74800    7.53448
       O    14.29741   -5.22685    7.17086
      H1    14.64267   -4.76326    6.40759
       H    18.67753   -2.40748    6.47030
       O    18.91483   -1.45805    6.47580
      H1    19.87661   -1.46956    6.24890
       H    18.41563   -7.24072    2.81832
       O    18.24927   -6.83230    3.67676
      H1    17.84093   -6.00943    3.51007
       H    19.09891   -8.29988    8.57295
       O    18.94572   -7.86130    9.40054
      H1    18.12399   -8.22434    9.75768

