30
frame 0 | Written by MDAnalysis XYZWriter (release 2.4.3)
       H     8.27692    4.74388   -9.44000
       O     9.27072    4.66314   -9.36631
      H1     9.30855    4.01575   -8.60508
       H     8.89919    7.90888  -11.02213
       O     9.18687    8.54765  -10.34081
      H1     9.20180    8.21462   -9.45389
       H    14.60277    9.50427   -8.49874
       O    14.44540    9.65948   -9.43928
      H1    13.73577    9.07544   -9.69460
       H    11.97270    9.95258  -11.42835
       O    11.18031   10.32988  -11.03919
      H1    10.59720    9.60057  -11.03016
       H     9.91132    4.81068  -14.51962
       O    10.15476    5.20496  -13.65903
      H1    11.05854    5.55208  -13.66201
       H    10.29168    7.14355   -7.61679
       O     9.51261    7.07337   -8.17395
      H1     9.41905    6.13088   -8.40029
       H    13.11731    7.87079  -11.95547
       O    13.54217    8.72444  -12.11740
      H1    14.39797    8.54740  -12.58703
       H    10.94188    6.72102  -10.97172
       O    11.87850    6.54715  -11.23390
      H1    12.23968    6.61451  -10.33628
       H    12.18586    4.25179   -8.76015
       O    12.67442    3.91027   -8.01227
      H1    13.17973    3.17215   -8.41375
       H    12.36329    7.59537   -7.83898
       O    12.78960    7.32529   -8.63698
      H1    13.60185    6.89505   -8.40457

