30
frame 10 | Written by MDAnalysis XYZWriter (release 2.4.3)
       H    -9.50012    4.15402    5.25881
       O    -9.07652    4.36223    4.37723
      H1    -8.30300    3.79086    4.19718
       H   -10.96043    3.00793    6.89939
       O   -10.00696    2.92011    6.71837
      H1    -9.48839    3.25678    7.41748
       H   -10.64763    0.59738    2.93122
       O   -10.55564    1.33327    2.29725
      H1   -10.74532    0.86110    1.47088
       H    -8.31574    6.47379    4.10841
       O    -8.07273    7.23297    3.64313
      H1    -7.85464    6.73870    2.87043
       H   -12.97688    4.87871    2.96316
       O   -13.62477    5.55354    2.79232
      H1   -13.99103    5.15655    2.02498
       H    -8.21825    0.67866    4.51569
       O    -8.10653    0.57535    3.51803
      H1    -8.86094    1.03518    3.10961
       H   -11.45813    3.39972    0.78909
       O   -11.47880    3.15443   -0.09777
      H1   -11.39093    3.99349   -0.61957
       H   -10.67675    4.04648    3.39793
       O   -11.35572    3.87601    2.72991
      H1   -11.51651    2.91414    2.81246
       H   -12.56407    6.77261    1.61551
       O   -11.84701    6.75409    0.93761
      H1   -11.07901    7.19102    1.35479
       H    -9.53325    3.01595   -0.13531
       O    -8.59826    3.08938   -0.27970
      H1    -8.52683    3.23101   -1.22821

