30
frame 10 | Written by MDAnalysis XYZWriter (release 2.4.3)
       H     6.51107   -0.85786    3.15736
       O     6.56998   -1.82583    3.21731
      H1     6.97452   -2.05772    2.33303
       H     7.72728   -2.56557    0.21766
       O     7.13270   -3.06553    0.79306
      H1     6.27800   -2.83885    0.49017
       H     2.75683   -5.30442    3.02990
       O     2.63965   -6.23578    2.84300
      H1     3.23891   -6.83365    3.37858
       H    -0.00145   -5.21864    1.29496
       O     0.32986   -4.53409    0.65014
      H1     1.24757   -4.37741    0.89304
       H    -0.33118   -2.44791    2.89984
       O     0.39594   -2.86730    3.49916
      H1     0.87426   -2.08059    3.72520
       H     5.19818   -5.22579    3.41725
       O     5.93401   -5.91720    3.44573
      H1     5.73928   -6.57886    2.75767
       H     3.51312   -2.90716    1.47440
       O     3.02060   -3.27167    2.21808
      H1     3.63424   -3.33731    3.00781
       H     3.42821   -0.75819    4.24055
       O     2.63117   -0.68479    3.71332
      H1     2.65059   -1.46406    3.09024
       H     4.76058   -3.64063    5.10519
       O     4.72516   -3.66944    4.15610
      H1     5.44420   -3.12407    3.78472
       H     4.25162   -1.18036    0.63201
       O     4.32158   -2.10090    0.34993
      H1     4.48750   -2.02673   -0.57404

