30
frame 10 | Written by MDAnalysis XYZWriter (release 2.4.3)
       H     7.40530  -17.70082   17.40850
       O     8.26072  -17.21359   17.30364
      H1     8.04998  -16.56928   16.66131
       H    14.39153  -18.73041   15.73474
       O    14.52072  -18.00839   16.31657
      H1    13.75572  -17.46447   16.30457
       H     8.49457  -16.26022   19.09328
       O     9.11465  -16.29629   19.79672
      H1     9.53008  -15.39755   19.73292
       H    11.80512  -14.71634   14.27044
       O    11.41328  -14.56924   15.11605
      H1    10.67768  -15.19560   15.33485
       H    11.19866  -17.78458   13.18690
       O    11.61616  -18.27913   13.93118
      H1    12.31947  -18.77992   13.49074
       H    10.32868  -13.45949   19.63152
       O    10.18966  -13.83190   18.71856
      H1    11.13248  -13.78422   18.32740
       H    11.10054  -18.03735   18.14024
       O    11.37128  -17.63506   18.94296
      H1    10.67701  -16.97813   19.10748
       H    13.33559  -14.11605   17.91517
       O    12.62938  -13.50750   17.75845
      H1    12.50462  -13.51378   16.79482
       H     9.71998  -18.17893   16.71039
       O    10.51164  -18.75831   16.61028
      H1    10.82147  -18.67095   15.70994
       H    14.35524  -18.60902   18.46730
       O    13.86993  -18.93655   19.20486
      H1    13.07553  -18.32554   19.25512

