30
frame 10 | Written by MDAnalysis XYZWriter (release 2.4.3)
       H     0.98854  -18.75897  -15.77064
       O     1.87158  -18.63694  -15.43567
      H1     2.14203  -19.53813  -15.19270
       H    -2.29175  -13.23285  -18.37790
       O    -2.10797  -12.55404  -19.07144
      H1    -1.71020  -13.03755  -19.84247
       H    -4.77226  -17.76776  -16.63281
       O    -4.80701  -16.86418  -16.17004
      H1    -5.38804  -17.12486  -15.44221
       H     1.01803  -16.12782  -16.74832
       O     1.21643  -16.46767  -17.61725
      H1     0.71085  -17.25211  -17.67067
       H    -2.61573  -16.76157  -18.01209
       O    -2.92435  -17.42138  -18.60842
      H1    -2.61652  -17.05998  -19.45103
       H    -4.27004  -15.18233  -16.12738
       O    -4.11079  -14.23846  -16.07090
      H1    -4.86016  -13.81460  -16.56499
       H    -3.79550  -12.02606  -19.20969
       O    -4.74199  -11.93697  -19.29355
      H1    -5.11916  -11.05525  -19.27979
       H    -0.86012  -15.29698  -16.95395
       O    -1.74690  -15.25850  -17.32771
      H1    -2.43439  -14.95570  -16.65370
       H    -6.20377  -15.79091  -19.06778
       O    -5.95889  -15.25311  -18.28590
      H1    -5.48349  -15.87718  -17.72583
       H    -0.87315  -19.35463  -16.09525
       O    -0.65627  -18.59460  -16.69706
      H1    -0.91649  -18.95455  -17.56192

