30
frame 0 | Written by MDAnalysis XYZWriter (release 2.4.3)
       H    19.08033  -11.15756   13.19677
       O    19.99293  -11.63484   13.14576
      H1    19.80167  -12.57619   13.10723
       H    18.40386  -10.88826   15.01925
       O    18.49601  -11.27390   15.88154
      H1    17.76187  -11.91948   15.88235
       H    18.45538  -11.28110    8.59856
       O    17.72750  -11.51229    9.24187
      H1    18.10019  -12.26504    9.80643
       H    17.88473  -14.25516   11.48005
       O    18.27285  -14.00621   10.67199
      H1    19.19123  -14.17041   10.62426
       H    19.63913   -9.13367   16.40927
       O    19.15817   -8.51468   16.95816
      H1    18.48956   -9.14296   17.38413
       H    15.43643  -12.30314   12.11750
       O    15.37941  -13.26529   12.07201
      H1    14.68007  -13.48469   11.48810
       H    17.97507   -9.00452   13.99506
       O    17.94293   -9.86783   13.52530
      H1    17.33394   -9.72070   12.81799
       H    18.42553   -7.24976   11.29889
       O    18.28492   -6.33897   11.59720
      H1    17.87271   -6.52280   12.46766
       H    15.30139  -10.32546   10.94967
       O    15.82526  -10.32098   11.76599
      H1    15.41895   -9.71631   12.33501
       H    18.38372   -8.42166    8.96381
       O    18.43159   -8.65550    9.92022
      H1    18.17244   -9.63978    9.93115

