30
frame 10 | Written by MDAnalysis XYZWriter (release 2.4.3)
       H   -17.88019    4.19338   -9.90632
       O   -17.91926    5.12610  -10.02385
      H1   -18.54536    5.35532  -10.73055
       H   -15.25319    4.76227  -17.87538
       O   -15.43433    4.45100  -16.98115
      H1   -14.68716    3.79665  -16.82315
       H   -15.39377    4.89250  -14.58969
       O   -14.90229    5.34897  -13.89065
      H1   -14.47846    6.04382  -14.43616
       H   -17.34923    7.92592  -15.50609
       O   -16.53785    8.25402  -15.87267
      H1   -16.51943    9.18866  -15.69483
       H   -15.64685    6.23273  -12.52887
       O   -16.38633    6.60865  -11.94827
      H1   -16.77547    5.87125  -11.49957
       H   -17.24225    6.57559  -17.05467
       O   -17.97372    6.51457  -17.73559
      H1   -17.99994    7.19361  -18.37235
       H   -17.81435    2.94213  -15.25961
       O   -17.28325    2.68421  -16.02859
      H1   -16.81556    3.38227  -16.42513
       H   -17.33224   10.25258   -9.94578
       O   -16.96536    9.83369  -10.78280
      H1   -17.06239    8.87467  -10.74908
       H   -13.80482    8.09962  -14.00100
       O   -13.91767    7.72221  -14.91719
      H1   -14.90250    7.70552  -14.99879
       H   -19.07922    7.15700  -13.96961
       O   -18.18847    7.03603  -14.26790
      H1   -17.67801    7.10945  -13.41882

