30
frame 10 | Written by MDAnalysis XYZWriter (release 2.4.3)
       H     7.85796    9.18133   -2.09526
       O     6.98428    8.83327   -2.36450
      H1     6.87045    9.10627   -3.28131
       H     5.85266   11.65772   -1.07984
       O     5.41284   10.81930   -1.38626
      H1     6.13221   10.18882   -1.50610
       H     5.64539    5.92033   -2.24146
       O     4.80403    5.72374   -2.70815
      H1     4.21663    5.68207   -1.97032
       H     7.50725    9.05304    0.56965
       O     7.59485    8.24114    1.06948
      H1     8.45969    7.92292    0.87950
       H     5.67543    7.84844    0.80602
       O     4.78925    7.59361    0.51508
      H1     4.29173    7.87132    1.30143
       H    10.26996    7.27048   -0.63607
       O    10.14334    7.96546    0.06751
      H1    10.40886    7.50170    0.86729
       H     6.27893    2.70998   -3.18919
       O     6.18881    3.26142   -3.96226
      H1     5.78394    4.03594   -3.56510
       H     6.29481    7.14789   -5.24497
       O     7.29578    7.12506   -5.04049
      H1     7.55754    8.02362   -5.03898
       H     7.41014    7.08056   -2.19112
       O     7.40834    6.15835   -2.43472
      H1     7.37481    6.11880   -3.40998
       H    10.67002    5.81147   -3.23255
       O    10.29042    6.61477   -2.85016
      H1     9.45800    6.31441   -2.52104

