30
frame 10 | Written by MDAnalysis XYZWriter (release 2.4.3)
       H   -10.06300  -18.85193   16.85601
       O   -10.48921  -19.68754   16.70237
      H1   -10.00897  -20.20016   16.07558
       H    -6.96224  -16.99381   19.05013
       O    -7.79869  -16.54782   19.15590
      H1    -7.92216  -16.03184   18.30357
       H   -11.12034  -15.18574   19.89171
       O   -10.80406  -14.51294   19.23564
      H1   -10.66166  -13.63278   19.70900
       H    -9.06383  -14.35987   18.06343
       O    -8.52675  -14.65050   17.37933
      H1    -7.97955  -13.85257   17.23972
       H   -11.95835  -14.51941   16.23379
       O   -12.34147  -14.20889   17.08340
      H1   -11.67779  -14.30603   17.77537
       H    -8.55549  -15.74897   15.68038
       O    -8.94072  -16.10006   14.88960
      H1    -8.21534  -16.00233   14.26247
       H   -11.48851  -14.30004   13.83236
       O   -11.46161  -15.03783   14.42844
      H1   -10.50228  -15.09804   14.62759
       H   -10.18271  -16.25918   17.63650
       O   -10.46603  -16.99993   17.12021
      H1   -10.02148  -16.86739   16.29190
       H   -13.52166  -16.83878   15.51478
       O   -13.21464  -17.72276   15.80414
      H1   -12.35263  -17.72067   16.28422
       H   -13.81524  -14.76574   16.20848
       O   -14.55326  -15.14335   15.65021
      H1   -15.19057  -15.48486   16.24782

