30
frame 10 | Written by MDAnalysis XYZWriter (release 2.4.3)
       H    -6.77307   -8.79813    3.83601
       O    -6.70450   -8.79821    4.84539
      H1    -7.57310   -8.46273    5.13393
       H    -3.79090   -7.25128   -0.60881
       O    -4.22787   -8.07008   -0.74990
      H1    -3.46057   -8.63640   -0.73562
       H    -6.59691  -10.27666    0.40542
       O    -6.48807  -11.17431   -0.02230
      H1    -7.05024  -11.27697   -0.74416
       H    -3.54767  -11.10118    2.53530
       O    -3.80988  -10.18033    2.34015
      H1    -3.17471   -9.53644    2.62492
       H    -5.43136   -7.48749    4.85771
       O    -4.59157   -7.02618    5.05968
      H1    -4.63940   -6.20437    4.56303
       H    -8.02348   -7.32420    0.04125
       O    -8.61961   -6.68866    0.45612
      H1    -8.22430   -6.39754    1.32004
       H    -7.99206   -8.27760   -2.01335
       O    -7.30757   -8.11934   -1.37440
      H1    -6.46817   -7.98511   -1.81418
       H    -6.62488   -5.95286    2.93841
       O    -7.60473   -6.00534    2.91073
      H1    -8.01598   -5.50554    3.62286
       H    -1.96348   -7.21657    3.18360
       O    -2.58512   -7.87021    3.43320
      H1    -3.39045   -7.58547    3.82661
       H    -5.12260   -9.17275    1.96082
       O    -5.85984   -8.60074    1.74235
      H1    -5.72987   -8.28634    0.85766

