30
frame 9 | Written by MDAnalysis XYZWriter (release 2.4.3)
       H    15.90793   11.45613   -3.99481
       O    15.28099   12.01488   -4.48881
      H1    14.43719   11.96082   -4.01991
       H    17.83139   11.32932   -2.87352
       O    17.28090   10.63594   -3.22493
      H1    16.61086   10.49613   -2.55949
       H    11.31818    8.90199   -2.09684
       O    11.79256    9.32540   -1.36073
      H1    11.43339    8.86013   -0.58093
       H    11.17527   11.82086   -3.21018
       O    10.37615   11.47592   -3.56645
      H1     9.87250   12.09852   -4.18709
       H    12.70496   12.59067   -1.73990
       O    12.85340   11.81710   -2.33697
      H1    12.40378   11.11234   -1.86323
       H    13.70239    9.73055   -5.90770
       O    13.27691    9.01918   -5.37345
      H1    12.37041    9.22852   -5.36430
       H    16.21993    7.46807   -0.59675
       O    15.31790    7.51272   -1.00772
      H1    15.32593    7.17248   -1.89587
       H    14.14144   10.43516   -1.95056
       O    15.04170   10.20813   -1.71392
      H1    14.98593    9.27447   -1.40152
       H    15.24934    6.86554   -4.14522
       O    14.44283    7.00219   -3.71267
      H1    14.11170    7.81512   -4.07849
       H    14.23116   12.96692    0.12115
       O    14.90671   12.27926    0.31888
      H1    15.23229   11.76542   -0.43469

