30
frame 9 | Written by MDAnalysis XYZWriter (release 2.4.3)
       H    10.74096    9.46301   11.30462
       O    11.06388   10.34781   11.57889
      H1    11.33314   10.79551   10.78918
       H    12.45563   11.63460    8.97998
       O    11.53048   11.76077    9.00901
      H1    11.33632   12.71807    9.11872
       H    14.66710   10.77494   11.39362
       O    14.96407    9.98763   11.75401
      H1    14.69053    9.27624   11.15399
       H    16.95346   12.14577    9.78248
       O    16.71067   12.87008    9.22225
      H1    17.02473   12.74965    8.29349
       H    14.88477   14.12291    6.30755
       O    14.45625   13.30429    6.23708
      H1    14.46037   12.87474    7.11546
       H    15.14026   12.28494    8.77826
       O    14.26844   11.96496    8.54536
      H1    14.46317   11.10882    8.04701
       H    14.03561    9.27824    6.33762
       O    14.64031    9.82961    6.82029
      H1    15.54202    9.47582    6.78699
       H    10.43886   11.29741    7.58040
       O     9.63124   11.19417    7.04666
      H1     9.52556   11.97052    6.44442
       H    18.31084   10.27281   10.77903
       O    17.60746   10.96071   11.00519
      H1    16.80852   10.42519   11.11115
       H    12.59882   13.21853   11.61863
       O    13.46420   12.84086   11.88865
      H1    13.41564   12.59545   12.82987

