30
frame 10 | Written by MDAnalysis XYZWriter (release 2.4.3)
       H    -3.86023   -3.02480  -11.79592
       O    -3.16625   -3.49748  -11.31500
      H1    -2.34701   -3.04433  -11.61429
       H     2.21403   -0.72525  -14.11565
       O     2.76466   -0.87608  -14.93152
      H1     2.75600   -0.03152  -15.38083
       H     2.51300   -0.92447  -11.29740
       O     3.04718   -1.74143  -11.40597
      H1     2.71401   -2.31187  -10.72493
       H     0.96148    1.23713   -9.58155
       O     1.62307    0.77111  -10.08320
      H1     2.37540    1.37435  -10.29133
       H    -1.74555    1.56011  -12.66714
       O    -1.18246    1.38113  -13.41743
      H1    -0.55322    0.66817  -13.04333
       H     1.11741    0.43325  -11.82841
       O     0.82094   -0.10885  -12.61013
      H1     0.53329   -0.99935  -12.28056
       H     0.18912    0.25779  -16.08134
       O    -0.74873    0.22138  -15.86190
      H1    -0.75865    0.74386  -15.07748
       H    -0.65843   -2.35916  -11.05169
       O    -0.87401   -2.32616  -11.98230
      H1    -0.44692   -3.12854  -12.28364
       H     3.45274   -2.40722  -14.40605
       O     3.61649   -3.15214  -13.75978
      H1     3.67250   -2.65431  -12.95471
       H     0.15265   -5.33489  -13.22709
       O     0.33235   -4.40369  -13.53825
      H1     0.76871   -4.66860  -14.35605

