30
frame 10 | Written by MDAnalysis XYZWriter (release 2.4.3)
       H    15.68796  -15.07162    0.19103
       O    15.60444  -14.18368   -0.26276
      H1    15.14685  -14.46661   -1.08486
       H    17.78516  -14.34865   -0.31126
       O    18.56517  -13.84496   -0.12827
      H1    18.38070  -13.37095    0.69905
       H    17.32740   -9.70927    0.37655
       O    17.26393   -9.28789    1.26479
      H1    16.37022   -9.19158    1.55660
       H    13.53212  -12.42855    1.94340
       O    13.88796  -12.13761    1.09484
      H1    14.55960  -12.76350    0.88367
       H    17.15482  -10.62741    2.81767
       O    16.87492  -10.89734    3.69692
      H1    16.54269  -10.12183    4.12993
       H    18.19036  -12.73973    2.68608
       O    18.62760  -12.26723    1.99550
      H1    19.58747  -12.15474    2.32218
       H    15.62342  -13.59203    5.71060
       O    15.92275  -13.57829    4.75328
      H1    16.19968  -12.65120    4.60866
       H    18.51053  -11.15418    4.93654
       O    19.15177  -11.35396    5.67059
      H1    18.69956  -11.07703    6.44102
       H    19.16042   -8.42832    3.33219
       O    18.63809   -7.97697    4.05636
      H1    18.55563   -7.05540    3.74929
       H    17.23951  -10.71166   -1.78210
       O    17.92877  -10.76538   -1.10949
      H1    18.09891  -11.67726   -1.00154

