30
frame 10 | Written by MDAnalysis XYZWriter (release 2.4.3)
       H    -8.89193    0.05579   -7.82360
       O    -8.75404   -0.52774   -8.52311
      H1    -9.58808   -0.71050   -8.89238
       H    -7.36733   -6.07869   -9.06706
       O    -7.90820   -6.89429   -9.04642
      H1    -8.26091   -7.05094   -9.95337
       H    -8.12117   -7.00255   -4.20378
       O    -7.28806   -6.55878   -4.43893
      H1    -7.38399   -6.21536   -5.35822
       H    -9.50892   -5.65428   -7.27358
       O    -8.80434   -5.20518   -6.79035
      H1    -8.07240   -5.35091   -7.40306
       H   -12.02172   -6.34695   -8.20964
       O   -11.21716   -5.77850   -8.39827
      H1   -10.96041   -5.96461   -9.27407
       H    -5.53427   -4.44505   -8.47682
       O    -5.94142   -5.12744   -7.96453
      H1    -5.39157   -5.30193   -7.17443
       H   -10.11557   -1.09338   -4.20839
       O    -9.54584   -0.83528   -4.99122
      H1    -9.52169   -1.61641   -5.53476
       H    -7.58516   -0.94599   -4.51505
       O    -6.70151   -0.72746   -4.78213
      H1    -6.49855   -1.49414   -5.31048
       H    -9.19471   -3.69386   -6.99612
       O    -9.54727   -2.76969   -6.99246
      H1    -9.11081   -2.22585   -7.63985
       H   -12.15359   -4.28244   -7.80515
       O   -12.52436   -3.52788   -7.38377
      H1   -11.76398   -2.98604   -7.13321

