33
frame 2 | Written by MDAnalysis XYZWriter (release 2.4.3)
       H    19.22078   17.28252    1.90937
       O    19.86897   17.98079    1.76688
      H1    19.42911   18.80012    1.95146
       H    14.38459   15.98300    7.28566
       O    14.35215   15.51439    8.16832
      H1    15.29378   15.39916    8.50101
       H    16.73171   14.27785    8.77813
       O    16.79159   15.18353    9.08220
      H1    16.86604   15.09205   10.05959
       H    13.31646   17.33330    6.06881
       O    14.30902   17.20088    5.94063
      H1    14.76680   17.94087    5.65373
       H    15.08143   20.05099   10.99218
       O    15.75179   19.42746   10.52645
      H1    15.03732   18.80113   10.27213
       H    16.99555   18.79094    5.10692
       O    16.44650   18.79060    4.26265
      H1    15.72511   19.42945    4.33239
       H    17.87836   19.51498    7.26867
       O    17.91281   18.87102    6.54035
      H1    18.67498   19.12072    5.98926
       H    19.46245   13.82063    8.93821
       O    19.63117   13.88793    7.97026
      H1    18.97798   14.39032    7.52118
       H    16.89413   16.96222    4.09021
       O    16.97298   15.98597    4.19781
      H1    17.80241   15.76492    4.66424
       H    18.32061   16.48302    8.65673
       O    19.11716   16.93897    8.53321
      H1    18.86596   17.57124    7.86311
       H    19.85491   15.87431    5.25495
       O    19.07114   15.74705    5.85790
      H1    19.30091   16.22877    6.65389

