33
frame 1 | Written by MDAnalysis XYZWriter (release 2.4.3)
       H    -4.87722  -12.12547  -16.09617
       O    -4.53564  -12.80621  -15.51915
      H1    -3.81149  -13.13135  -16.15363
       H     0.47030  -18.49551  -15.94769
       O     0.17327  -18.78305  -15.06714
      H1     0.78125  -19.31910  -14.56709
       H    -4.23011  -18.35098  -15.27233
       O    -3.85893  -17.45806  -15.50083
      H1    -3.57027  -17.04960  -14.63693
       H    -5.56803  -14.40436  -15.91022
       O    -6.14004  -15.20611  -16.12446
      H1    -6.85519  -14.80860  -16.63314
       H    -0.23311  -15.92936  -13.60313
       O     0.59625  -15.83813  -14.08687
      H1     0.68657  -16.70220  -14.52785
       H     1.39508  -14.91332  -16.47540
       O     1.81798  -15.29044  -17.25778
      H1     2.39378  -14.61538  -17.64660
       H    -1.76631  -12.81355  -17.45012
       O    -2.37697  -13.45899  -17.01539
      H1    -2.72323  -14.01965  -17.70201
       H     0.64397  -13.79135  -14.67549
       O     1.29334  -13.16876  -15.03432
      H1     0.73132  -12.40002  -15.15476
       H    -1.80621  -16.49697  -17.67270
       O    -2.73159  -16.73252  -17.97072
      H1    -3.25782  -17.00089  -17.15146
       H    -2.82759  -14.92127  -20.23141
       O    -3.30206  -14.63564  -19.41478
      H1    -3.20977  -15.36574  -18.78898
       H     0.12859  -17.79194  -18.41659
       O     0.07793  -17.34896  -17.57906
      H1     0.76351  -16.67479  -17.56950

