33
frame 1 | Written by MDAnalysis XYZWriter (release 2.4.3)
       H     9.02527    5.11580   10.87729
       O     8.89260    5.96507   10.47235
      H1     8.36253    6.57116   10.95142
       H     5.56383    3.50708   10.56286
       O     4.69198    3.36585   10.99112
      H1     4.69938    2.50897   11.50292
       H    10.05315    4.63983   14.30268
       O     9.60380    5.47959   14.29173
      H1     8.99957    5.25491   13.57130
       H     8.83193    7.12707    8.45281
       O     8.79002    7.14323    7.51587
      H1     9.31013    6.37881    7.24651
       H     6.83992    6.60672    7.25821
       O     6.26009    5.83732    7.38783
      H1     5.37990    6.23862    7.46094
       H    11.78066    6.71711   11.80764
       O    11.53519    7.09641   10.94322
      H1    10.66556    6.75794   10.73232
       H     4.76741    6.28209   11.41600
       O     4.86133    6.93788   10.68824
      H1     5.74229    7.31744   10.81992
       H     9.88443    3.21692   11.80851
       O     9.18070    3.46916   11.19923
      H1     8.30428    3.20216   11.58551
       H     6.98810    8.58066   11.79112
       O     7.16125    8.36282   10.86174
      H1     7.32866    9.29678   10.58194
       H     6.75626    7.99227   13.84234
       O     7.19438    8.83821   13.70054
      H1     6.45713    9.45298   13.62385
       H     6.74526    4.13374    8.42030
       O     7.00421    3.60544    9.16644
      H1     7.76823    4.07272    9.46135

