33
frame 1 | Written by MDAnalysis XYZWriter (release 2.4.3)
       H     2.23672   18.56810   -7.73317
       O     2.44397   17.96145   -8.44707
      H1     3.29873   17.60399   -8.18049
       H     8.30072   20.15847   -3.12219
       O     8.06540   19.62394   -3.89078
      H1     7.31682   19.11987   -3.60746
       H     6.15294   16.97900   -2.58276
       O     6.92682   17.60546   -2.41044
      H1     7.57982   17.52838   -3.07524
       H     5.85884   16.72186   -8.91320
       O     6.52506   16.88374   -9.61166
      H1     7.31867   16.36249   -9.46659
       H     2.35113   16.95350   -1.11078
       O     2.40989   17.18988   -2.05195
      H1     2.46712   18.17275   -2.04993
       H     5.05558   17.29989   -6.85690
       O     4.80319   16.52038   -7.46796
      H1     4.45726   15.86197   -6.86221
       H     5.51971   18.51427   -1.32972
       O     5.00017   18.88215   -0.62228
      H1     4.16951   18.83274   -1.11142
       H     4.00507   16.43255   -2.55251
       O     4.79407   15.99984   -2.92105
      H1     4.95044   15.13763   -2.43914
       H     5.11084   19.14223   -5.61133
       O     5.24164   18.34121   -5.07248
      H1     4.34067   18.02189   -4.81931
       H     7.01022   17.02329   -5.13515
       O     7.97511   16.84760   -5.15422
      H1     8.35318   17.46540   -5.79866
       H     3.97209   14.87858   -4.48249
       O     4.03572   14.73490   -5.45162
      H1     3.98054   13.82055   -5.73188

