33
frame 1 | Written by MDAnalysis XYZWriter (release 2.4.3)
       H   -17.92353  -11.81824  -11.13272
       O   -17.02416  -11.58981  -11.39609
      H1   -16.92983  -10.65247  -11.12860
       H   -16.92166  -15.28044   -7.59692
       O   -16.83856  -15.51993   -8.49208
      H1   -16.38495  -14.78245   -8.86560
       H   -16.32512   -8.32063  -11.37954
       O   -16.46734   -9.08956  -10.78156
      H1   -17.28879   -8.94937  -10.32165
       H   -19.33848   -7.75851   -9.82223
       O   -18.86003   -8.58371   -9.62326
      H1   -18.54061   -8.52481   -8.72739
       H   -18.12946  -11.01777   -5.09405
       O   -17.66387  -11.05379   -4.26221
      H1   -18.37943  -10.99701   -3.55340
       H   -19.76156  -14.76025   -6.33983
       O   -19.36337  -14.15332   -5.73145
      H1   -18.54367  -14.61045   -5.41498
       H   -14.99616  -11.90146   -5.48087
       O   -15.48612  -12.74537   -5.41186
      H1   -16.32954  -12.37819   -4.99833
       H   -18.25914   -8.43150   -6.22560
       O   -17.68477   -7.96139   -6.80590
      H1   -17.92888   -7.02219   -6.73574
       H   -15.62848  -11.71640   -8.65725
       O   -15.84788  -10.88061   -8.26639
      H1   -16.71699  -11.00552   -7.87795
       H   -14.70360  -13.46288  -10.07225
       O   -15.52374  -13.12428   -9.68818
      H1   -15.99615  -12.67411  -10.36113
       H   -18.71047  -12.43915   -6.56972
       O   -18.54926  -11.55348   -6.94298
      H1   -19.15094  -11.32093   -7.66718

