33
frame 1 | Written by MDAnalysis XYZWriter (release 2.4.3)
       H   -13.60949    0.71483    5.64327
       O   -14.34549    0.42071    5.11280
      H1   -15.16562    0.83999    5.29483
       H   -14.03574   -0.13170    3.35523
       O   -13.92354   -0.51560    2.43661
      H1   -14.40106   -1.36400    2.48554
       H   -14.93802   -0.00554   -0.12774
       O   -15.35168    0.51563    0.50603
      H1   -14.87549    0.07673    1.23171
       H   -14.46597   -3.66600    3.44325
       O   -14.68345   -3.06251    2.71614
      H1   -14.37561   -3.50548    1.92304
       H   -13.20844    2.59844    1.50355
       O   -14.07773    2.72276    1.07285
      H1   -14.28216    1.78380    0.88144
       H   -11.48101   -2.74791    1.68554
       O   -11.41404   -1.79401    1.71060
      H1   -12.31612   -1.49808    1.84917
       H   -16.86210   -4.29849    4.47365
       O   -17.02444   -4.09015    3.51996
      H1   -16.24660   -3.68392    3.12683
       H   -17.38123   -0.29859    5.07610
       O   -17.50374   -1.26251    5.21383
      H1   -17.06153   -1.81552    4.54367
       H   -17.62095   -0.12339    2.85384
       O   -17.24751   -0.84661    2.27158
      H1   -16.54748   -0.32646    1.85134
       H   -14.24573   -1.54989    5.92391
       O   -14.23345   -2.00632    6.81084
      H1   -13.38267   -1.90768    7.24840
       H   -13.98878   -4.32846   -0.53890
       O   -14.27267   -3.73222    0.17320
      H1   -15.11798   -3.27576   -0.08021

