33
frame 1 | Written by MDAnalysis XYZWriter (release 2.4.3)
       H    17.05310   11.86372    3.51814
       O    16.64829   11.50243    2.69033
      H1    17.34928   10.95863    2.29453
       H    14.25665    9.52009    1.97898
       O    14.73947    8.70411    2.05024
      H1    14.88814    8.45589    1.12444
       H    16.98714    8.63881    3.69345
       O    17.89696    8.81348    3.62860
      H1    18.07045    9.03589    2.68261
       H    17.96106   10.19159    4.62056
       O    18.04171   10.97008    5.18576
      H1    18.98560   11.10610    5.13313
       H    15.68084    7.15424    7.85536
       O    16.22730    7.53405    7.10295
      H1    15.69590    7.95087    6.44470
       H    14.58625    7.88682    3.58773
       O    14.90593    7.68525    4.46922
      H1    14.18107    7.27098    4.94797
       H    13.85771   13.71774    4.76936
       O    13.09897   13.43160    5.25314
      H1    13.40609   13.45508    6.15030
       H    16.16863   11.03781    7.84220
       O    15.28484   10.81236    7.68849
      H1    15.20930   10.77541    6.69092
       H    15.11623    9.57871    4.73134
       O    15.08771   10.53114    4.84104
      H1    15.58065   10.92837    4.06292
       H    16.95079   14.41538    4.40167
       O    16.50204   13.75747    5.00919
      H1    17.23257   13.59968    5.67498
       H    12.85763   10.82517    3.11227
       O    12.85910   11.06470    2.17498
      H1    11.98239   10.92046    1.78789

