33
frame 1 | Written by MDAnalysis XYZWriter (release 2.4.3)
       H     6.24088   -9.47319  -10.82817
       O     5.81001   -9.07961  -10.01153
      H1     4.96066   -8.65603  -10.22776
       H     0.39261  -10.54931  -11.54336
       O     1.26277  -10.16127  -11.80497
      H1     1.70632  -10.81535  -12.30791
       H     1.63537   -6.51643  -12.62825
       O     1.31823   -5.58467  -12.83881
      H1     0.68698   -5.67087  -13.60381
       H    -0.65951   -6.93984  -11.72359
       O    -1.28615   -7.63338  -11.83153
      H1    -2.12837   -7.16370  -11.51807
       H     3.60882   -9.52453   -9.21674
       O     3.36849   -8.56911   -9.12364
      H1     2.95408   -8.32371   -9.98059
       H     2.19980   -8.40438  -12.02948
       O     2.43136   -7.58310  -11.63067
      H1     3.37562   -7.42562  -11.65148
       H     5.43514   -5.31155  -10.86342
       O     4.64563   -5.70671  -11.28865
      H1     3.84523   -5.21855  -10.99946
       H    -0.74816   -9.19283  -14.79802
       O    -1.21749   -8.41573  -14.42961
      H1    -1.05318   -8.44961  -13.46195
       H     5.31215  -10.21991  -14.28495
       O     4.71996  -10.99607  -14.58576
      H1     4.27861  -11.35258  -13.82282
       H     2.89859   -7.16654  -15.50699
       O     2.10704   -7.40705  -15.98608
      H1     1.51884   -6.68107  -15.98025
       H     4.42968   -6.12131  -13.26766
       O     4.18315   -6.79177  -13.94193
      H1     4.95152   -7.30537  -14.15125

