33
frame 1 | Written by MDAnalysis XYZWriter (release 2.4.3)
       H    -5.75142   13.11015   15.81154
       O    -5.42778   13.80362   16.48960
      H1    -6.16882   14.37513   16.45599
       H    -1.36706   16.37312   18.69306
       O    -1.28505   16.12809   19.61276
      H1    -1.84901   15.33240   19.62224
       H    -7.65215   16.39223   20.11247
       O    -6.69188   16.25314   20.03627
      H1    -6.52704   16.29616   19.08456
       H    -3.05326   13.02266   19.34199
       O    -2.09510   12.77608   19.30542
      H1    -1.92837   11.80495   19.30200
       H    -7.17880    8.99234   18.39885
       O    -7.19964    9.96186   18.45811
      H1    -7.31555   10.14693   19.36369
       H    -7.55686   16.33721   16.98865
       O    -6.66575   16.33576   17.32823
      H1    -6.11639   16.91519   16.81227
       H    -5.45440   15.38039   13.73692
       O    -4.55103   15.47842   14.14985
      H1    -4.52450   14.73320   14.80537
       H    -3.85236   17.70193   16.65417
       O    -3.13968   17.29681   17.23274
      H1    -3.40802   17.76880   18.04499
       H    -2.53404   12.51143   15.64807
       O    -2.82031   11.62979   15.75259
      H1    -3.69480   11.69670   16.18584
       H    -5.79312   10.71364   17.56440
       O    -5.12106   11.26763   17.24794
      H1    -5.46569   12.16685   17.19564
       H    -5.02244   14.16162   19.15172
       O    -4.73053   13.39373   19.60745
      H1    -5.53020   12.90529   19.85707

