33
frame 1 | Written by MDAnalysis XYZWriter (release 2.4.3)
       H    12.76531    2.65091  -17.52623
       O    13.61649    3.16600  -17.60052
      H1    14.30255    2.50472  -17.65622
       H    11.09816    8.33823  -15.84655
       O    12.00166    8.40101  -16.15396
      H1    11.99917    8.25663  -17.10644
       H    12.48109    5.02399  -14.85305
       O    12.68598    4.45535  -14.12776
      H1    12.97645    5.03811  -13.45204
       H    16.88884    8.06785  -16.37397
       O    17.70580    8.17004  -16.83326
      H1    18.04644    7.28460  -16.81735
       H     9.67460    6.21254  -18.49382
       O    10.37617    6.06522  -17.75489
      H1    11.18400    5.97845  -18.23507
       H    13.56921    4.80181  -18.14924
       O    13.57511    5.79421  -18.02542
      H1    13.92816    6.23493  -18.78135
       H    15.96761    5.69830  -15.06117
       O    16.63897    5.10244  -14.61102
      H1    16.10546    4.27642  -14.76037
       H    14.05587    3.38958  -15.52928
       O    14.92702    3.16848  -15.15242
      H1    15.16912    2.41449  -15.69689
       H    10.40246    2.12915  -17.27529
       O    10.99883    2.61432  -16.70703
      H1    10.74688    3.49809  -16.67817
       H    14.51550    6.76460  -16.67887
       O    15.21770    7.05121  -16.05677
      H1    14.75574    7.68049  -15.48807
       H    11.33943    9.27825  -19.33034
       O    11.97427    8.55673  -19.16870
      H1    12.52737    8.61341  -19.92931

