33
frame 1 | Written by MDAnalysis XYZWriter (release 2.4.3)
       H    -4.59966   -2.18106  -15.71522
       O    -3.81750   -2.74246  -15.66023
      H1    -3.60329   -2.86605  -14.71132
       H    -1.61506   -2.73425  -12.58427
       O    -1.72565   -2.78002  -13.52309
      H1    -1.50213   -3.65427  -13.83001
       H    -3.42979   -5.56810  -17.01199
       O    -4.27761   -5.12027  -16.88200
      H1    -4.14750   -4.22623  -16.47200
       H    -6.72493   -6.04995  -17.45945
       O    -7.47137   -6.08477  -16.84785
      H1    -8.15257   -5.50542  -17.13941
       H    -1.48205   -2.05552  -17.88637
       O    -1.96544   -1.36575  -17.44733
      H1    -2.64390   -1.86215  -16.92280
       H    -4.42342   -5.77965  -15.26094
       O    -4.44297   -5.93124  -14.30451
      H1    -5.33996   -5.78997  -14.05841
       H    -6.58166   -2.19365  -13.00905
       O    -5.85312   -2.86132  -12.77382
      H1    -6.01029   -3.66389  -13.26884
       H    -5.13936   -5.46353  -18.15009
       O    -5.78852   -5.84286  -18.83294
      H1    -5.30108   -6.02734  -19.66017
       H    -7.75355   -4.73150  -13.52829
       O    -7.03478   -5.15174  -14.03421
      H1    -7.42552   -5.39794  -14.88779
       H    -2.47829   -7.63446  -18.18473
       O    -2.26225   -6.72071  -17.86135
      H1    -1.32278   -6.60477  -18.05409
       H    -1.16309   -6.21943  -14.52201
       O    -0.76672   -5.32765  -14.46094
      H1    -0.59776   -5.12983  -15.41749

