33
frame 1 | Written by MDAnalysis XYZWriter (release 2.4.3)
       H     4.86328  -15.90145  -15.19586
       O     5.37057  -15.39144  -14.52830
      H1     6.03673  -16.03261  -14.18492
       H     4.98122  -15.22897  -18.82417
       O     5.50808  -15.85573  -19.29492
      H1     6.02318  -15.25122  -19.85560
       H     3.23897  -16.44688  -16.58592
       O     4.12291  -16.73810  -16.44805
      H1     3.97694  -17.54446  -15.85486
       H     5.53154  -12.16463  -15.34291
       O     5.95797  -12.73733  -16.02962
      H1     5.96113  -13.52873  -15.47031
       H    10.92175  -12.24520  -17.53854
       O    10.65414  -12.78102  -18.31070
      H1     9.70826  -12.65471  -18.34876
       H     1.39508  -14.91332  -16.47540
       O     1.81798  -15.29044  -17.25778
      H1     2.39378  -14.61538  -17.64660
       H     6.42692  -18.13212  -16.10014
       O     6.72197  -18.95382  -15.70081
      H1     6.65757  -19.50644  -16.47948
       H     3.85326  -13.41783  -19.11999
       O     4.12515  -13.87004  -18.25304
      H1     4.83329  -13.41202  -17.78883
       H     5.02286  -19.71040  -18.23552
       O     4.02360  -19.61358  -18.40148
      H1     3.81459  -18.69897  -18.26418
       H     7.52003  -12.11919  -17.60884
       O     7.93854  -12.65214  -18.30265
      H1     7.64839  -13.54457  -18.19238
       H     8.24278  -16.94963  -18.50855
       O     8.03139  -16.20531  -17.89408
      H1     7.13617  -15.95216  -18.20157

