33
frame 1 | Written by MDAnalysis XYZWriter (release 2.4.3)
       H     5.56383    3.50708   10.56286
       O     4.69198    3.36585   10.99112
      H1     4.69938    2.50897   11.50292
       H     3.43254   -3.13363   12.17027
       O     3.54314   -3.94179   12.65775
      H1     2.63719   -4.05803   12.90261
       H     7.41554   -2.35038   11.69165
       O     7.05106   -1.81283   10.94070
      H1     6.53382   -2.50486   10.49962
       H     3.55098    2.50350   14.18371
       O     4.46260    2.08819   14.18991
      H1     4.71073    2.17108   15.12537
       H     2.74922   -1.03444   10.25275
       O     3.23218   -0.83549    9.41714
      H1     4.08840   -0.80415    9.84755
       H     9.80653    0.35838   13.20346
       O     8.92881    0.27738   13.60701
      H1     8.19289    0.83209   13.22077
       H     6.69754    2.68631   13.34862
       O     6.99112    2.26296   12.56417
      H1     6.24508    1.64514   12.24939
       H     9.49694   -0.53370    8.65765
       O     8.83318    0.13018    8.98941
      H1     8.24754   -0.45633    9.48736
       H     5.87159   -0.67425   11.46164
       O     5.24114    0.08566   11.39158
      H1     4.68478   -0.09730   12.21318
       H     1.41433    1.36013    8.50458
       O     1.86930    1.77037    9.30346
      H1     2.68882    1.24894    9.26076
       H     3.91663    0.46803   13.77554
       O     3.37448   -0.21787   13.37193
      H1     2.75922    0.29284   12.79253

