33
frame 2 | Written by MDAnalysis XYZWriter (release 2.4.3)
       H   -11.75748  -13.04747  -16.20069
       O   -12.06612  -13.64771  -15.47179
      H1   -11.15099  -13.90566  -15.09951
       H    -8.25109  -14.95787  -15.36178
       O    -8.85520  -14.77228  -14.61741
      H1    -8.78172  -13.81707  -14.44663
       H    -7.43381  -16.55490  -13.94777
       O    -7.15027  -17.43098  -13.68964
      H1    -6.97020  -17.91321  -14.48557
       H   -11.34851  -14.50481  -11.69749
       O   -11.22343  -13.79099  -11.04796
      H1   -10.52344  -14.08888  -10.45083
       H    -9.69911   -9.84590  -12.59795
       O   -10.40251  -10.54965  -12.75523
      H1    -9.99062  -11.23145  -13.30175
       H   -11.94754  -16.29389  -13.40142
       O   -11.06797  -16.03566  -13.08461
      H1   -10.47429  -15.70228  -13.77560
       H    -5.18584  -15.30110  -15.57700
       O    -6.03043  -14.95083  -15.70698
      H1    -5.90153  -14.03113  -15.43997
       H    -7.73093  -12.09160  -14.00291
       O    -8.63866  -12.01440  -14.34525
      H1    -8.56498  -11.66340  -15.24688
       H    -5.34476  -12.84457  -13.74240
       O    -6.08862  -12.88289  -13.09754
      H1    -6.08615  -12.00909  -12.65227
       H    -8.67423  -17.48323  -17.30256
       O    -8.39500  -16.54424  -17.24742
      H1    -7.46121  -16.59192  -17.37741
       H    -7.63411  -11.73678  -17.61572
       O    -8.37161  -11.47140  -17.06964
      H1    -8.33314  -10.48302  -17.21287

