33
frame 0 | Written by MDAnalysis XYZWriter (release 2.4.3)
       H   -11.76469    8.33872    9.81755
       O   -11.22224    8.74535   10.48871
      H1   -11.70375    8.47562   11.32651
       H   -11.70977   10.35120    9.82615
       O   -12.05047   11.18092    9.50916
      H1   -11.35532   11.81547    9.69325
       H   -13.64542   11.23461    8.96952
       O   -14.51755   10.99662    8.52547
      H1   -15.02229   11.83210    8.45226
       H   -15.31272    9.49333    9.11451
       O   -15.90403    8.77574    9.27010
      H1   -16.68660    9.33571    9.41358
       H   -12.76145    7.83666    7.35806
       O   -12.14618    7.70825    8.07969
      H1   -12.12732    6.71149    8.17834
       H   -12.82684   12.26931   12.31928
       O   -12.05983   12.90647   12.37696
      H1   -12.34694   13.64246   11.82852
       H    -9.54516   12.61014   10.82021
       O    -9.92663   13.05068   10.02778
      H1    -9.22219   13.55430    9.65018
       H   -14.46260   10.26997   13.70154
       O   -13.77356   10.83170   13.33765
      H1   -13.07025   10.19522   13.08272
       H   -12.92296   11.76111    5.91013
       O   -13.64081   11.08110    6.01037
      H1   -13.97159   10.98399    6.90820
       H   -10.22202   10.72106    7.43155
       O    -9.78311   10.46723    6.60242
      H1   -10.34567    9.74372    6.31318
       H   -10.39956   10.50613   11.56981
       O   -10.10482   11.08542   12.27684
      H1   -10.86202   11.78068   12.39199

