33
frame 2 | Written by MDAnalysis XYZWriter (release 2.4.3)
       H    11.61298    4.32039  -19.69827
       O    11.18470    4.35014  -18.81520
      H1    11.11123    3.46188  -18.55794
       H     6.67915    0.37705  -19.47001
       O     5.79705    0.06561  -19.72896
      H1     5.19280    0.47985  -19.05911
       H     4.00969    4.69632  -19.80298
       O     3.29168    4.65909  -19.11885
      H1     3.51309    5.49400  -18.64029
       H     9.08472    0.04454  -17.22808
       O     8.89478    0.84297  -16.74721
      H1     8.54824    0.60475  -15.90177
       H     8.50066    4.28223  -15.21097
       O     9.06263    3.82685  -14.51462
      H1     8.49243    3.07901  -14.29359
       H     9.07604    7.02638  -18.76981
       O     9.51993    6.69223  -18.00116
      H1    10.25613    6.20685  -18.35744
       H     8.65242    5.43838  -17.44267
       O     8.07755    4.76167  -17.02485
      H1     7.43627    5.30398  -16.54871
       H    10.48709    2.22034  -16.22149
       O    11.10654    2.95935  -16.35667
      H1    10.73507    3.49372  -15.69184
       H     7.15167    3.74444  -18.13300
       O     6.27916    3.38018  -18.45575
      H1     5.67319    4.09409  -18.15929
       H     5.67936    6.44856  -15.86761
       O     5.64599    5.62915  -15.37292
      H1     6.02319    5.97321  -14.54452
       H     4.55073    1.18409  -16.48849
       O     4.75900    1.19217  -17.45007
      H1     5.19952    2.02862  -17.57757

