33
frame 2 | Written by MDAnalysis XYZWriter (release 2.4.3)
       H     1.24817    2.75729  -14.52110
       O     1.93919    2.45036  -13.93587
      H1     1.56444    2.39009  -13.03439
       H     5.49955   -1.00204  -10.33597
       O     6.12232   -0.77976  -11.05434
      H1     5.60678   -0.27438  -11.71231
       H     6.54482    2.44565  -12.96163
       O     6.64204    1.70588  -13.57860
      H1     7.35027    1.14017  -13.31838
       H     1.31091   -1.99410  -15.80240
       O     1.75331   -2.20656  -16.66068
      H1     2.32855   -1.41883  -16.74812
       H     6.11622    4.54570  -12.06637
       O     5.92953    3.70915  -11.61389
      H1     5.04907    3.34415  -11.79454
       H     4.14133   -3.01421  -13.84904
       O     4.93060   -3.07565  -14.37704
      H1     5.24232   -2.26333  -14.75647
       H     3.46985    0.74533  -11.83567
       O     3.37687   -0.13057  -12.22760
      H1     3.67199   -0.02762  -13.14527
       H     5.86079   -0.46235  -16.63009
       O     6.25380   -1.13314  -16.04571
      H1     6.90272   -1.64462  -16.53329
       H     5.10539    1.33946  -14.46055
       O     4.26004    0.99949  -14.72204
      H1     3.50874    1.49252  -14.46750
       H     4.55073    1.18409  -16.48849
       O     4.75900    1.19217  -17.45007
      H1     5.19952    2.02862  -17.57757
       H     2.79127    4.43539  -13.74840
       O     3.04522    5.39377  -13.63121
      H1     3.80762    5.51117  -14.23222

