33
frame 2 | Written by MDAnalysis XYZWriter (release 2.4.3)
       H     7.34708  -17.06496   13.15993
       O     8.04789  -17.29796   12.58904
      H1     8.81845  -17.25125   13.18110
       H     6.59709  -18.20144   18.10897
       O     7.43198  -18.51853   17.70136
      H1     7.72094  -17.69707   17.28123
       H     9.43274  -14.48361   14.05539
       O    10.06666  -14.89485   14.65358
      H1     9.55097  -15.41309   15.28983
       H    12.27413  -12.97486   15.38791
       O    11.55184  -12.98800   16.05551
      H1    10.82499  -13.25803   15.52341
       H     5.52859  -14.96727   19.42156
       O     6.03975  -15.61734   18.85830
      H1     6.13976  -15.13386   18.00950
       H     7.50290  -16.58128   15.59435
       O     8.24946  -16.50168   16.20825
      H1     8.05254  -15.69490   16.72440
       H    11.92057  -16.17443   17.21469
       O    12.44978  -15.79394   16.45253
      H1    11.95490  -15.02403   16.23783
       H    11.30710  -19.48568   16.63369
       O    10.90285  -18.72329   16.15105
      H1    10.54896  -18.13983   16.82739
       H     9.98879  -17.77107   19.30607
       O     9.24890  -18.15431   19.76418
      H1     8.60689  -18.35414   19.00738
       H     6.85409  -13.40961   17.61337
       O     6.76246  -14.03206   16.88165
      H1     6.37789  -13.58132   16.17870
       H     5.56676  -17.64968   14.38786
       O     6.16976  -16.92176   14.43524
      H1     5.67039  -16.13870   14.27739

