33
frame 2 | Written by MDAnalysis XYZWriter (release 2.4.3)
       H    16.36395   -1.10967   -2.59750
       O    17.22093   -1.31211   -2.16885
      H1    17.45741   -0.58096   -1.60572
       H    18.43680   -5.50014   -2.45513
       O    19.00384   -5.15580   -3.14281
      H1    18.32456   -4.62874   -3.60548
       H    14.91979   -4.03674   -9.08092
       O    14.23196   -4.32826   -8.43404
      H1    13.77278   -3.54686   -8.01725
       H    16.58652   -6.29635   -8.06040
       O    17.08831   -5.85142   -7.36298
      H1    16.76598   -6.23150   -6.53872
       H    16.78421   -1.85313   -8.15534
       O    16.19395   -1.09497   -8.30933
      H1    15.65410   -1.35538   -9.05691
       H    16.31782   -3.60767   -4.82035
       O    17.06404   -3.50352   -4.20827
      H1    16.93757   -2.57498   -3.85888
       H    19.61016   -3.47668   -2.43899
       O    19.58592   -2.72297   -1.83189
      H1    18.67519   -2.35248   -1.91038
       H    17.05113    1.08851   -5.44049
       O    17.83345    1.45908   -5.03446
      H1    18.54537    0.86398   -5.13858
       H    18.44737   -6.28319   -8.51933
       O    18.94056   -6.50720   -9.33541
      H1    18.91486   -5.70323   -9.93223
       H    15.62237    0.08762   -6.85971
       O    15.44859    0.65858   -6.09160
      H1    15.28824    0.04027   -5.35805
       H    18.60398   -3.17574   -6.19375
       O    18.24087   -3.08900   -7.06056
      H1    17.71681   -3.86994   -7.17579

