33
frame 2 | Written by MDAnalysis XYZWriter (release 2.4.3)
       H    16.21480   -2.93512  -15.99119
       O    16.05325   -2.21696  -15.35494
      H1    16.72919   -1.50545  -15.43212
       H    17.39515   -7.60994  -17.77707
       O    17.72816   -7.27341  -18.60873
      H1    18.55767   -6.82767  -18.22099
       H    17.26069   -3.36473  -13.79990
       O    17.12846   -4.25995  -13.49036
      H1    16.17585   -4.36922  -13.48221
       H    14.02549   -5.03453  -13.10036
       O    14.23052   -4.65160  -13.95144
      H1    13.42180   -4.70637  -14.38731
       H    17.11417   -3.55383  -17.94476
       O    16.13177   -3.42613  -17.98993
      H1    15.76972   -4.28969  -17.97115
       H    19.37916   -3.42218  -18.30759
       O    18.83264   -3.77158  -17.59845
      H1    19.25566   -3.63430  -16.72680
       H    17.24363   -0.69879  -17.93267
       O    18.13395   -0.69368  -18.19176
      H1    18.36777   -1.52640  -18.52589
       H    14.89319   -8.37656  -17.06747
       O    15.83903   -8.26837  -16.78372
      H1    15.85095   -7.38546  -16.28655
       H    16.95491   -5.20166  -15.76918
       O    16.16835   -5.72158  -15.79111
      H1    15.54289   -5.34818  -15.15107
       H    14.68314   -1.74200  -18.55457
       O    14.67946   -1.16450  -19.32371
      H1    15.35491   -1.49903  -19.88152
       H    10.93842   -4.51188  -18.07760
       O    11.86500   -4.22578  -18.02107
      H1    11.96443   -4.50694  -17.10580

