33
frame 2 | Written by MDAnalysis XYZWriter (release 2.4.3)
       H     1.73431  -19.46815   -2.79309
       O     2.51096  -19.46875   -2.23814
      H1     2.31914  -18.92414   -1.46617
       H    -0.41811  -16.65073    1.50667
       O     0.45583  -17.01658    1.37150
      H1     1.03594  -16.46427    1.93539
       H     2.79869  -15.18037    1.38735
       O     2.75478  -15.73137    2.15329
      H1     3.49882  -16.31855    2.10416
       H     5.28790  -18.14422    1.62320
       O     4.80325  -17.36666    1.64056
      H1     5.57465  -16.79795    1.86874
       H     6.38508  -15.87491   -1.30692
       O     5.84811  -16.76372   -1.48658
      H1     6.22017  -17.05205   -2.30509
       H    -0.81015  -15.78391   -1.17533
       O    -1.76030  -15.84644   -1.06274
      H1    -2.06561  -16.73132   -1.26897
       H     2.59531  -17.28304   -2.39052
       O     3.04206  -16.38820   -2.21720
      H1     3.94079  -16.50767   -1.99369
       H     0.77177  -13.86989   -1.32861
       O     1.11639  -14.59566   -0.71955
      H1     1.78330  -15.12504   -1.23385
       H     3.18809  -15.18043   -3.58254
       O     3.32402  -14.71348   -4.38275
      H1     2.55405  -14.13351   -4.42902
       H     1.58892  -17.42957    0.21668
       O     2.39824  -18.02412   -0.01788
      H1     3.21363  -17.46168    0.13760
       H     0.35250  -17.90953    4.68989
       O     0.27674  -18.60658    4.08811
      H1     0.83389  -18.41228    3.34902

