33
frame 2 | Written by MDAnalysis XYZWriter (release 2.4.3)
       H    -2.31799   13.15381    3.52280
       O    -2.20471   14.09849    3.31726
      H1    -3.09107   14.35451    3.05947
       H    -3.05181   16.35746    1.82200
       O    -2.22351   16.88863    1.84645
      H1    -2.27623   17.30537    2.72156
       H    -2.09726   14.90316    8.41447
       O    -2.78682   15.49889    8.30891
      H1    -3.00991   15.41147    7.34147
       H    -0.59477   15.15417    2.68829
       O     0.24128   15.19272    2.25916
      H1     0.61483   16.06428    2.61484
       H    -5.54126   14.91992    2.16945
       O    -4.62623   15.26625    2.21513
      H1    -4.79338   16.17364    2.61466
       H    -1.44827   12.85154    7.49614
       O    -0.74362   13.25538    8.06736
      H1     0.09366   13.05301    7.65863
       H    -2.11021   11.77494    5.20805
       O    -1.57740   11.66006    4.42029
      H1    -1.76566   10.69607    4.20417
       H    -2.70168   11.51493    7.20157
       O    -3.08804   12.22895    6.62343
      H1    -3.99576   11.91393    6.48617
       H    -0.47319   17.22101    5.23527
       O    -1.21082   17.34723    5.89103
      H1    -1.91167   16.68584    5.83260
       H    -5.90190   16.70074    5.60964
       O    -6.06173   15.76494    5.73541
      H1    -6.20268   15.63466    6.64513
       H    -4.47112   15.34100    5.40079
       O    -3.47766   15.38673    5.48027
      H1    -3.08510   14.57175    5.04483

