33
frame 2 | Written by MDAnalysis XYZWriter (release 2.4.3)
       H     6.12965   -5.05831  -16.49830
       O     6.52772   -5.00846  -15.61416
      H1     5.92333   -4.29524  -15.25444
       H    10.01060   -1.69578  -19.37994
       O    10.31514   -1.80707  -18.43802
      H1    10.98151   -2.56245  -18.42323
       H     5.05373   -5.67684  -18.36620
       O     5.96144   -5.86794  -18.14565
      H1     6.37889   -5.19824  -18.74724
       H    11.26144   -3.92815  -15.27934
       O    11.77408   -4.73354  -15.42385
      H1    11.25179   -5.43153  -15.06174
       H     9.62581   -1.48078  -15.29986
       O    10.43582   -1.95133  -15.06962
      H1    11.10668   -1.31113  -15.09569
       H     5.86079   -0.46235  -16.63009
       O     6.25380   -1.13314  -16.04571
      H1     6.90272   -1.64462  -16.53329
       H     8.81115   -2.38730  -17.80676
       O     7.97091   -2.78852  -17.37688
      H1     8.32147   -3.53262  -16.86566
       H     9.21107   -5.09567  -19.57863
       O     9.71937   -5.81224  -19.17246
      H1    10.21303   -6.09916  -19.90464
       H     3.34824   -3.48412  -16.69014
       O     4.22076   -3.77180  -17.03250
      H1     4.82193   -3.79330  -16.28737
       H    10.93842   -4.51188  -18.07760
       O    11.86500   -4.22578  -18.02107
      H1    11.96443   -4.50694  -17.10580
       H     7.34811   -3.42901  -18.81467
       O     7.22097   -4.04030  -19.55689
      H1     6.51510   -3.67563  -20.08630

