33
frame 0 | Written by MDAnalysis XYZWriter (release 2.4.3)
       H    -3.98557    6.26180  -11.99229
       O    -4.30484    5.37189  -11.92743
      H1    -4.69670    5.30107  -12.79342
       H    -5.46518    4.09992  -14.72051
       O    -5.38628    5.00604  -14.48720
      H1    -4.87620    5.41516  -15.24994
       H    -6.99106    1.13541  -11.35576
       O    -7.76032    0.58633  -11.35798
      H1    -8.52766    1.12340  -11.05658
       H    -7.83597   -0.47764  -12.82883
       O    -7.61443   -1.28143  -13.41739
      H1    -8.44243   -1.63507  -13.70958
       H   -10.05314    3.90644  -15.75154
       O    -9.66299    3.22490  -15.13463
      H1    -9.12632    3.68274  -14.42096
       H    -2.83569    3.03233  -12.39903
       O    -2.18181    3.35283  -11.82058
      H1    -2.68402    4.19075  -11.53026
       H    -7.77418    3.55886  -12.31855
       O    -8.51913    3.99312  -12.79206
      H1    -9.35385    3.92036  -12.31694
       H    -4.88174    1.26176   -9.07431
       O    -4.26766    1.94839   -8.99628
      H1    -4.23271    2.29555   -9.90467
       H    -5.57764    4.79378  -10.50097
       O    -6.41943    4.39421  -10.22313
      H1    -6.27625    4.00850   -9.32344
       H    -6.15653    3.16131  -11.38874
       O    -5.74443    2.47072  -11.98432
      H1    -6.16481    2.48542  -12.88080
       H    -6.76525    2.82623  -15.53843
       O    -6.33544    2.43490  -14.74469
      H1    -5.61952    2.02542  -15.22503

