33
frame 2 | Written by MDAnalysis XYZWriter (release 2.4.3)
       H   -15.85635  -17.26913   16.73917
       O   -15.44909  -17.50605   15.88062
      H1   -16.04091  -18.12513   15.43914
       H   -11.24208  -14.39765   14.79323
       O   -11.54555  -15.27460   14.50515
      H1   -12.33108  -15.01517   13.94149
       H   -15.40877  -14.69742   19.69951
       O   -15.75837  -14.29759   18.89382
      H1   -14.98451  -13.77617   18.69826
       H   -12.70041  -17.93462   19.34423
       O   -12.81043  -18.88919   19.04405
      H1   -12.73627  -18.83982   18.01516
       H    -8.37985  -16.63383   18.50129
       O    -7.71829  -16.96074   17.82927
      H1    -7.60274  -16.30822   17.19249
       H    -8.79520  -20.12709   16.20249
       O    -8.95917  -19.22928   16.34513
      H1    -8.39060  -18.98085   17.05820
       H   -10.10527  -12.92136   16.45792
       O    -9.79308  -13.36809   17.28834
      H1   -10.64010  -13.57080   17.80520
       H   -10.82761  -16.33239   15.90575
       O   -10.82604  -16.87958   16.67958
      H1    -9.92609  -17.24307   16.84870
       H   -13.66304  -18.04648   16.10774
       O   -13.00875  -18.75822   16.35460
      H1   -12.14784  -18.27437   16.42585
       H   -16.87597  -16.38289   18.59581
       O   -16.97396  -17.18598   18.07180
      H1   -17.95632  -17.34529   17.93178
       H   -17.31260  -15.17451   15.03742
       O   -16.42206  -14.93200   15.18724
      H1   -15.95212  -15.72490   15.34114

