33
frame 2 | Written by MDAnalysis XYZWriter (release 2.4.3)
       H    -6.73627   -8.81673    8.65628
       O    -7.63262   -8.82721    9.10969
      H1    -8.12242   -9.55870    8.69750
       H    -9.91578  -11.04709    9.57837
       O    -9.43043  -11.30291    8.75213
      H1   -10.10431  -11.13079    8.04961
       H    -8.29485  -12.16852   10.07778
       O    -8.10743  -12.38703   11.01377
      H1    -7.67052  -11.54126   11.35828
       H   -11.44028  -10.18069   10.60223
       O   -10.65515  -10.51729   11.14755
      H1   -10.90742  -11.32373   11.66103
       H    -8.21007  -13.70103   12.49662
       O    -7.63528  -14.22620   13.07034
      H1    -7.94372  -15.13874   12.97340
       H    -4.75821  -14.29835   11.54177
       O    -4.92980  -14.00412   12.45770
      H1    -5.93749  -14.16115   12.48821
       H    -6.22837  -10.55728   13.13001
       O    -6.42344  -10.64468   12.19589
      H1    -6.59629   -9.74256   11.86412
       H   -11.20817  -13.95008   11.74006
       O   -11.55280  -13.16769   12.16534
      H1   -12.48294  -13.48887   12.37088
       H    -9.23420  -14.91080    9.86566
       O    -8.33728  -15.19170    9.55608
      H1    -7.75705  -15.08581   10.27791
       H    -7.97131  -14.01321    8.08554
       O    -7.46056  -13.77588    7.27310
      H1    -6.55636  -13.79873    7.53326
       H    -5.70335  -12.15449   10.66340
       O    -5.14968  -11.92439    9.93044
      H1    -5.31777  -12.58177    9.29503

