33
frame 2 | Written by MDAnalysis XYZWriter (release 2.4.3)
       H   -11.75981   -7.16947   17.02687
       O   -12.64214   -7.35737   17.36663
      H1   -12.54572   -6.92185   18.25338
       H   -11.36285  -10.16965   17.91997
       O   -12.12661  -10.29081   18.41771
      H1   -12.44688   -9.37899   18.33912
       H   -10.79669   -4.76321   16.37268
       O   -10.68253   -3.87417   16.06319
      H1    -9.80853   -3.86538   15.79045
       H   -10.26369   -8.84162   16.31300
       O   -10.17139   -9.79718   16.42647
      H1   -10.39990  -10.05025   15.53638
       H    -9.61204   -7.00458   19.76640
       O    -9.55048   -6.27573   19.05750
      H1    -8.63185   -5.88560   19.20918
       H    -8.44267   -8.41098   15.40906
       O    -7.66936   -8.13719   14.89184
      H1    -7.10994   -8.90102   15.08196
       H   -15.56569   -6.62430   18.67180
       O   -16.44524   -6.75965   18.30878
      H1   -17.00728   -5.99295   18.54230
       H   -13.76616   -6.21317   16.58341
       O   -14.41569   -5.59860   16.25835
      H1   -15.16228   -6.12137   15.88122
       H    -9.80922   -6.60428   17.19508
       O   -10.05002   -6.72428   16.27485
      H1    -9.51264   -6.00146   15.90446
       H   -14.34203   -4.32209   17.44797
       O   -14.28441   -3.61593   18.13178
      H1   -13.70934   -2.93332   17.75083
       H   -13.93658   -4.78883   14.46561
       O   -13.77291   -4.87208   13.48178
      H1   -14.69763   -4.90578   13.08874

