33
frame 2 | Written by MDAnalysis XYZWriter (release 2.4.3)
       H    17.79852   13.65254   -6.97219
       O    17.19034   14.07917   -6.35164
      H1    16.47156   13.38979   -6.27210
       H    17.94986   16.87291   -7.75270
       O    17.03145   16.62061   -7.73076
      H1    17.15570   15.82828   -7.19203
       H    16.68539   16.65768  -12.54143
       O    16.92103   16.94181  -11.62028
      H1    16.56745   16.31043  -10.96930
       H    15.78611   12.51353  -11.70385
       O    16.66589   12.26056  -11.42527
      H1    16.86557   12.87868  -10.70674
       H    13.36327   12.36100   -9.42122
       O    14.07161   12.19275   -8.83098
      H1    14.78235   12.78167   -9.09516
       H    19.36317   10.47573   -8.65027
       O    19.80533    9.82485   -9.20918
      H1    19.18286    9.27517   -9.75657
       H    18.65303   11.35344   -6.50163
       O    18.18587   11.21300   -7.33072
      H1    17.54983   10.49874   -7.18739
       H    18.10544   12.47927   -8.43832
       O    17.84979   13.09028   -9.11423
      H1    18.62153   13.51680   -9.46155
       H    14.50220   15.50351   -9.82108
       O    15.36778   15.13512   -9.73422
      H1    15.66740   15.48325   -8.89361
       H    19.26751   15.33217  -11.29972
       O    19.57948   15.02357  -10.42051
      H1    19.14419   15.62829   -9.80186
       H    19.79245   11.73222  -12.01500
       O    19.31498   11.80301  -12.81202
      H1    18.41292   11.89639  -12.58411

