33
frame 2 | Written by MDAnalysis XYZWriter (release 2.4.3)
       H    10.90820   16.42300   -5.58842
       O    11.44213   16.01985   -6.26661
      H1    11.60521   15.12769   -5.93804
       H    10.44577   15.80308   -7.80653
       O     9.66459   15.66255   -8.39766
      H1     9.88918   16.24640   -9.15030
       H     5.84607   16.51888   -2.33139
       O     6.76767   16.82300   -2.24419
      H1     6.80979   17.06236   -3.14426
       H     5.89218   15.98301   -8.72056
       O     6.66936   15.97397   -9.28574
      H1     7.29787   15.36378   -8.94135
       H     4.54048   17.76632   -7.10955
       O     4.39705   17.16694   -7.86561
      H1     4.19260   16.35493   -7.46666
       H     8.26169   18.63000   -7.93654
       O     8.75793   18.19554   -7.18606
      H1     8.95818   17.28435   -7.46808
       H     6.02678   18.17352   -1.65514
       O     5.71000   19.08480   -1.29434
      H1     4.96599   19.39032   -1.87479
       H     3.74605   16.11908   -3.09381
       O     4.52350   15.93337   -3.69178
      H1     4.77223   15.04624   -3.49505
       H     5.15475   19.86277   -6.10229
       O     4.51738   19.22050   -5.81907
      H1     3.76741   19.78979   -5.58891
       H     6.08304   18.05258   -5.25383
       O     6.92283   17.82091   -4.94685
      H1     7.55417   18.03188   -5.63598
       H    10.60413   17.86274   -3.76623
       O    10.04733   17.18862   -4.22809
      H1     9.12110   17.61150   -4.17409

