33
frame 2 | Written by MDAnalysis XYZWriter (release 2.4.3)
       H   -18.02476   -5.17229  -14.96831
       O   -18.89642   -5.30128  -15.38405
      H1   -19.37318   -5.83458  -14.78982
       H   -14.97585   -6.90270  -16.67969
       O   -15.89577   -7.13082  -16.82388
      H1   -16.09664   -7.50025  -17.71690
       H   -18.85312   -4.87009  -20.00220
       O   -17.87550   -4.67839  -19.92402
      H1   -17.65550   -4.89938  -18.98476
       H   -15.55920   -5.24155  -15.07430
       O   -16.15748   -4.90635  -14.39785
      H1   -16.29706   -5.45467  -13.57370
       H   -19.54475   -8.10961  -14.99732
       O   -19.54414   -8.39652  -15.91390
      H1   -19.36868   -7.54008  -16.33356
       H   -19.13855   -2.16548  -15.16317
       O   -18.71867   -2.12603  -15.96158
      H1   -18.89851   -1.20231  -16.24067
       H   -15.74874   -0.70277  -15.84539
       O   -16.10895   -1.45187  -15.28878
      H1   -16.83334   -1.87528  -15.76114
       H   -17.14937   -4.27903  -16.74412
       O   -16.39372   -4.47886  -17.36048
      H1   -16.19670   -5.40935  -17.02883
       H   -18.02946   -6.74477  -12.77712
       O   -17.16860   -6.54070  -12.39060
      H1   -17.29954   -5.71377  -11.91438
       H   -17.71964   -8.83054  -15.30670
       O   -16.86718   -9.23264  -15.14043
      H1   -16.36089   -8.43498  -15.22217
       H   -19.17247   -5.66837  -17.27443
       O   -19.25788   -6.39746  -17.83269
      H1   -18.42785   -6.87629  -17.93372

