33
frame 3 | Written by MDAnalysis XYZWriter (release 2.4.3)
       H    -5.93594  -16.83423   10.35913
       O    -6.25927  -16.44449    9.59164
      H1    -6.06043  -17.14969    8.89970
       H    -9.34108  -17.44006    7.03544
       O    -9.31369  -17.66761    6.08122
      H1    -8.62661  -18.30463    5.97444
       H    -8.40030  -12.31673   10.66814
       O    -7.89599  -12.70903   11.35691
      H1    -7.11670  -12.21042   11.51843
       H   -11.12538  -14.11962    9.32299
       O   -10.95501  -14.63164   10.13993
      H1   -11.09855  -15.53372   10.06963
       H   -11.15201  -14.33045    4.86573
       O   -10.38184  -13.89503    4.70130
      H1    -9.68408  -14.54555    4.86572
       H    -7.34611  -19.02469   10.68049
       O    -8.05463  -18.38657   10.55058
      H1    -7.59028  -17.70376   10.14796
       H    -6.49167  -19.45577    8.41193
       O    -6.10223  -18.71473    7.89941
      H1    -6.59602  -18.79980    7.08393
       H    -8.47099  -16.28526    5.86748
       O    -8.10128  -15.42198    5.67251
      H1    -7.90617  -15.02327    6.55555
       H    -9.51397  -15.49117    8.91288
       O    -8.70427  -15.73708    8.44584
      H1    -8.01692  -15.60511    9.13436
       H   -10.83726  -17.93084   10.38023
       O   -11.58159  -17.32670   10.34913
      H1   -12.08933  -17.49139    9.56266
       H    -8.01238  -13.66472    7.92408
       O    -7.50975  -12.91334    7.62758
      H1    -6.55066  -12.98958    7.89218

