33
frame 3 | Written by MDAnalysis XYZWriter (release 2.4.3)
       H    -8.24121   12.04383    7.14856
       O    -7.66047   12.78714    6.88985
      H1    -8.32101   13.41941    6.54957
       H    -6.08459    9.84256    9.78409
       O    -6.75626   10.40666   10.21916
      H1    -6.68660   10.14116   11.16097
       H    -6.99004   14.47989   12.66109
       O    -6.49687   14.55692   11.79855
      H1    -6.96737   14.12124   11.09594
       H   -10.05008   11.16621   11.24976
       O   -10.34507   12.06726   11.54129
      H1   -10.57350   12.43925   10.66431
       H    -5.03776   12.33535   10.31054
       O    -4.13285   12.10819   10.51345
      H1    -4.02577   11.24074   10.02559
       H   -10.24133   15.71078    8.26286
       O   -10.35138   15.63401    7.31006
      H1    -9.48043   15.63274    6.93379
       H    -7.44418   12.94455    8.48437
       O    -7.45452   12.96320    9.45410
      H1    -7.59624   12.07779    9.73642
       H    -7.17623   14.62549    8.53549
       O    -7.33939   15.52864    8.31569
      H1    -8.14486   15.76481    8.84091
       H   -10.17220   11.84115    8.10907
       O    -9.80776   11.34307    7.35911
      H1   -10.10218   10.43126    7.46345
       H    -8.30648    9.66597   10.36320
       O    -9.27211    9.51990   10.50873
      H1    -9.49284    8.84705    9.89777
       H   -12.12084   13.06908    8.53274
       O   -11.16919   13.29226    8.53254
      H1   -11.13680   14.05642    7.95722

