33
frame 3 | Written by MDAnalysis XYZWriter (release 2.4.3)
       H   -11.66075   10.32662  -13.72158
       O   -12.19476    9.62916  -13.44121
      H1   -12.40013    9.71132  -12.48643
       H   -10.49136   13.82966  -10.80327
       O   -11.19048   13.25492  -10.38105
      H1   -11.86221   13.19959  -11.06587
       H   -13.25075   12.31544  -12.78591
       O   -13.39927   12.02465  -11.85210
      H1   -14.29083   12.18404  -11.59968
       H   -15.09905   14.36849  -13.69059
       O   -15.65936   14.57952  -12.92012
      H1   -16.47427   14.08393  -13.10655
       H   -11.73463   15.68906  -13.71519
       O   -11.01561   15.03792  -13.55852
      H1   -10.67875   14.92480  -14.46046
       H   -12.19146   13.46144  -14.30584
       O   -13.11923   13.13684  -14.49179
      H1   -13.21088   13.01699  -15.45256
       H   -11.46522   11.75576  -16.57170
       O   -11.06840   10.85516  -16.60898
      H1   -10.25152   10.93453  -16.05799
       H   -15.20088   10.95527  -14.02639
       O   -16.14347   11.03961  -13.74291
      H1   -16.61967   10.59709  -14.49067
       H   -12.72383   12.96222  -17.80319
       O   -13.43034   12.79190  -17.16292
      H1   -14.16385   13.30534  -17.56485
       H   -13.83065   10.89340  -16.49011
       O   -14.09942   10.06512  -16.00009
      H1   -13.26207    9.79721  -15.54612
       H    -8.82319   11.61474  -15.36083
       O    -9.27152   11.99372  -14.61259
      H1    -8.74315   11.69822  -13.81020

