33
frame 3 | Written by MDAnalysis XYZWriter (release 2.4.3)
       H    16.69976    8.30398   -6.13573
       O    16.44401    8.86398   -6.90030
      H1    15.53404    9.16550   -6.75060
       H    18.59319    4.25802   -9.23358
       O    18.84410    5.22122   -9.20571
      H1    18.28609    5.67941   -9.82787
       H    19.44128    9.85644   -8.28600
       O    19.77326    9.01334   -8.64431
      H1    18.90896    8.72342   -9.04581
       H    15.62218    5.44964   -7.05216
       O    16.02842    5.36591   -6.19666
      H1    16.79349    5.97058   -6.24539
       H    18.28484   11.45300   -6.72106
       O    18.09625   10.93633   -7.47060
      H1    17.61380   10.14055   -7.13488
       H    18.60844    5.13017   -2.55901
       O    18.90107    5.76265   -1.86444
      H1    18.79958    6.61426   -2.29002
       H    17.27056    3.62990   -3.52051
       O    18.25604    3.70396   -3.45224
      H1    18.68447    3.29784   -4.24047
       H    18.75382    6.61938   -6.22081
       O    18.06144    6.96471   -5.62078
      H1    18.45791    7.16955   -4.77456
       H    19.49463    8.11279   -3.31822
       O    18.60410    8.33053   -3.05640
      H1    18.57633    9.30025   -2.92997
       H    14.93214    6.28145   -5.50875
       O    14.31050    6.94609   -5.09829
      H1    14.69553    7.29877   -4.31259
       H    16.21587    6.62633   -8.77816
       O    15.43559    6.07993   -8.69852
      H1    15.61239    5.28687   -9.19945

