33
frame 3 | Written by MDAnalysis XYZWriter (release 2.4.3)
       H   -10.92461    5.51932   12.47656
       O   -11.83727    5.76561   12.68073
      H1   -11.88343    6.75770   12.66689
       H    -9.75778    7.78205    7.33829
       O    -8.80756    7.57076    7.34471
      H1    -8.76165    6.93351    8.02209
       H   -14.14482    9.75771    6.93183
       O   -13.73136   10.08860    7.72167
      H1   -12.79576    9.96236    7.51456
       H   -11.16815    8.00969   10.55023
       O   -11.49959    7.59950    9.70292
      H1   -12.46836    7.78471    9.76024
       H   -14.83396    7.48687    9.26808
       O   -14.14034    7.98386    9.72713
      H1   -14.09903    8.79635    9.22245
       H   -11.81128    8.08375    7.44170
       O   -11.25189    8.64793    6.89236
      H1   -11.82677    8.81068    6.15718
       H   -11.44577    5.39336    9.72970
       O   -11.10958    4.63386    9.26674
      H1   -11.35770    3.95964    9.94305
       H    -8.81445    5.58640   10.06038
       O    -8.22639    5.82529    9.36660
      H1    -7.56842    6.31138    9.81553
       H   -11.73138    9.25002   12.75294
       O   -11.22100    8.47993   12.41088
      H1   -10.34953    8.69334   12.68452
       H    -8.30648    9.66597   10.36320
       O    -9.27211    9.51990   10.50873
      H1    -9.49284    8.84705    9.89777
       H   -13.86955    5.77230    7.34587
       O   -12.96883    6.05229    7.44195
      H1   -12.48654    5.46544    8.02466

