33
frame 3 | Written by MDAnalysis XYZWriter (release 2.4.3)
       H    19.36014  -11.22893   13.28102
       O    19.86584  -12.04422   13.15501
      H1    19.99217  -12.45284   13.97372
       H    17.61555  -11.98654   15.30333
       O    17.64367  -12.59239   16.08891
      H1    16.71842  -12.85097   16.28115
       H    18.90156  -11.44919    7.62251
       O    18.12693  -11.31384    8.24109
      H1    18.33820  -11.71020    9.08911
       H    17.16864  -15.62995   13.43862
       O    17.76459  -15.97451   12.76805
      H1    18.63496  -16.10907   13.19759
       H    18.13834  -14.16841   10.22130
       O    17.53520  -14.94287   10.22288
      H1    17.41163  -15.26707   11.14811
       H    17.03407  -14.15169   15.25871
       O    16.50771  -14.62783   14.63991
      H1    16.09606  -15.29837   15.22450
       H    17.46078   -9.63124   14.21290
       O    17.42718  -10.57870   13.93094
      H1    16.69282  -10.57304   13.35470
       H    18.67334   -7.51899   11.59369
       O    18.55828   -6.94808   12.35995
      H1    17.59078   -6.86825   12.50522
       H    18.90106   -7.85557   14.49102
       O    18.58484   -8.07332   15.38031
      H1    19.36825   -8.48314   15.81871
       H    16.99180  -10.38575   11.10710
       O    16.12832  -10.85606   11.23330
      H1    15.45783  -10.23000   11.00170
       H    19.50088   -8.40414    9.58136
       O    19.48056   -8.92681   10.44418
      H1    19.79552   -9.81469   10.09679

