33
frame 3 | Written by MDAnalysis XYZWriter (release 2.4.3)
       H     5.60601    4.73550   18.96231
       O     5.17313    5.60951   19.07462
      H1     4.48649    5.76084   18.43209
       H     2.48737    6.08574   16.76122
       O     3.20322    6.48609   17.24267
      H1     3.10830    7.42772   17.09154
       H     3.85489    5.71177   15.71600
       O     4.37291    5.38917   14.96655
      H1     4.00797    5.91942   14.26580
       H     8.73468    4.32649   19.24239
       O     9.35827    3.64512   18.89286
      H1    10.21076    4.06725   18.72060
       H     2.41742    1.92587   19.51984
       O     2.73520    1.76548   18.66004
      H1     3.64556    2.12264   18.61096
       H     7.27398    4.98128   15.47559
       O     6.81614    5.70130   15.94711
      H1     5.85376    5.59642   15.71378
       H     1.07694    2.64413   16.05564
       O     2.02385    2.77950   16.13895
      H1     2.27083    2.45755   17.09393
       H     5.91813    2.03751   18.06714
       O     5.36116    2.63789   18.56987
      H1     5.70823    2.48170   19.44785
       H     6.60827    6.47438   18.66339
       O     7.34847    7.01539   18.31334
      H1     7.56190    6.67469   17.42801
       H     7.58626    8.81955   18.53560
       O     7.40301    9.71413   18.73923
      H1     7.77187   10.23330   17.99219
       H     6.92633    7.53624   15.59866
       O     6.58032    8.41198   15.43728
      H1     5.83076    8.55209   16.01943

