33
frame 4 | Written by MDAnalysis XYZWriter (release 2.4.3)
       H    -0.88744   -0.89284   13.08371
       O    -1.39909   -0.84400   12.25857
      H1    -1.72025    0.09245   12.33555
       H     0.77711   -3.66463    8.61286
       O     0.13185   -3.20301    9.20284
      H1    -0.18923   -2.53182    8.59755
       H     3.96724    0.34494    9.85969
       O     3.57818    0.22501    8.99228
      H1     4.11402    0.80895    8.42548
       H     3.27798   -0.87140   14.01175
       O     3.22819   -1.56208   14.65735
      H1     3.61876   -1.24195   15.49823
       H     1.38012   -1.31082   14.45440
       O     0.40635   -1.16140   14.40059
      H1     0.02876   -1.74595   15.05592
       H     0.25593   -1.13134   11.43479
       O     1.17431   -1.19604   11.12417
      H1     1.06544   -1.87013   10.42383
       H     0.82771   -4.42039   13.23873
       O     0.68658   -4.75422   14.11796
      H1     1.00146   -5.66108   14.21725
       H     1.01156    2.36772    8.30880
       O     1.98522    2.28051    8.38690
      H1     2.14447    1.35818    8.73615
       H     1.33834    0.60798   11.34538
       O     1.59233    1.56455   11.35641
      H1     1.77166    1.89671   10.45460
       H     0.28689   -5.59799   11.49487
       O     0.98036   -4.86162   11.35184
      H1     0.60103   -4.29995   10.63215
       H     4.12248    1.39483   13.69486
       O     3.97349    0.77207   12.98141
      H1     3.07218    0.98590   12.65661

