33
frame 3 | Written by MDAnalysis XYZWriter (release 2.4.3)
       H   -17.42592    5.60981   19.14437
       O   -16.60781    5.77674   19.66802
      H1   -16.30068    6.61763   19.25908
       H   -18.95481    5.23719   14.77175
       O   -18.00443    5.22038   14.66646
      H1   -17.93932    4.32973   14.30554
       H   -18.39059    1.91312   14.68723
       O   -18.04214    2.53152   14.08819
      H1   -17.38406    2.16112   13.50608
       H   -17.54223    6.91797   13.70139
       O   -17.44509    7.88109   13.82337
      H1   -16.65316    8.12794   13.34987
       H   -18.05475    8.39622   15.97481
       O   -18.59789    8.75730   16.69672
      H1   -18.51383    9.71115   16.74347
       H   -14.64467    3.26320   18.18901
       O   -14.70535    2.43719   17.60724
      H1   -14.42889    1.74433   18.20339
       H   -14.92534    5.34750   19.30942
       O   -14.20591    4.65500   19.32652
      H1   -13.50157    4.98088   18.85291
       H   -16.17455    5.22754   15.62988
       O   -15.28316    4.82657   15.83871
      H1   -15.45297    3.99482   16.26467
       H   -18.14880    3.20478   17.97145
       O   -17.58169    2.33656   18.02840
      H1   -16.67844    2.48849   17.69115
       H   -18.19016    1.28088   16.93480
       O   -18.57292    0.62205   16.27807
      H1   -17.81943    0.14232   15.84374
       H   -19.63807    4.88321   18.73266
       O   -19.04016    4.71067   17.98452
      H1   -19.37944    5.05465   17.15009

