33
frame 3 | Written by MDAnalysis XYZWriter (release 2.4.3)
       H    -0.55667   10.54434    7.96975
       O    -1.44095   10.69625    8.40483
      H1    -1.72991    9.85164    8.77134
       H    -1.46220   12.61352    3.51127
       O    -1.72849   13.48536    3.12358
      H1    -2.22154   13.28607    2.31648
       H    -2.24135   15.17789    9.16039
       O    -2.49223   15.83749    8.47433
      H1    -2.16185   15.48090    7.70114
       H    -2.49371   13.32034   10.18730
       O    -1.62750   13.71551    9.98710
      H1    -1.27051   13.38647    9.16997
       H    -5.06513   12.73707    3.01541
       O    -5.06503   12.76410    2.05460
      H1    -5.94289   12.43622    1.74083
       H    -1.20719   13.34091    6.82791
       O    -0.61658   13.77319    7.42793
      H1     0.23840   13.57506    7.10024
       H    -1.42739   11.65919    5.20662
       O    -0.87147   11.27973    4.56427
      H1    -1.22986   10.49649    4.11074
       H    -4.12416    8.92874    7.79542
       O    -4.31400    8.95795    8.71832
      H1    -3.64383    8.36828    9.13151
       H    -3.07404   11.78986    6.75243
       O    -2.98303   12.25390    5.94079
      H1    -3.82458   12.17729    5.52680
       H    -3.78926   15.11368    5.77825
       O    -2.96615   15.52962    5.34414
      H1    -2.80443   14.76857    4.78953
       H    -6.03366   12.93507    5.17077
       O    -5.62271   12.27497    4.59057
      H1    -6.20718   11.53977    4.68040

