33
frame 3 | Written by MDAnalysis XYZWriter (release 2.4.3)
       H    -5.54233   -8.00578   -2.31978
       O    -5.04007   -8.09945   -1.48293
      H1    -4.90725   -7.22011   -1.13018
       H    -8.96533   -6.03710   -4.31629
       O    -8.69865   -5.72649   -3.39663
      H1    -9.62003   -5.36489   -3.12056
       H   -10.15007   -5.38702   -6.41955
       O    -9.68461   -6.13487   -6.02006
      H1    -9.72936   -6.86432   -6.63116
       H    -6.87658   -7.11254   -3.63095
       O    -6.26471   -7.82956   -3.80462
      H1    -6.78479   -8.53563   -4.14451
       H    -8.09295   -8.20226   -0.81412
       O    -7.46923   -7.82582   -0.16082
      H1    -6.62766   -7.96353   -0.56822
       H    -8.41572   -9.24382   -6.12858
       O    -7.62960   -9.73371   -5.75169
      H1    -8.06953  -10.29559   -5.06003
       H    -4.95968   -5.34965   -4.23184
       O    -5.00179   -5.08975   -3.29859
      H1    -5.01316   -4.13329   -3.29378
       H    -8.61045   -9.23648   -2.33158
       O    -9.32989   -8.85894   -1.80136
      H1   -10.01289   -8.38829   -2.34372
       H    -7.79352  -11.66298   -3.31621
       O    -7.27477  -10.97080   -2.88015
      H1    -6.47771  -11.36042   -2.50098
       H    -1.95580   -7.61068   -5.10359
       O    -2.29903   -8.50185   -5.15726
      H1    -3.22436   -8.49365   -4.78129
       H    -6.84529  -11.11569   -6.96691
       O    -6.39325  -11.92109   -7.32330
      H1    -6.63793  -11.97511   -8.29842

