33
frame 4 | Written by MDAnalysis XYZWriter (release 2.4.3)
       H    12.96757    9.79220  -15.55962
       O    12.67641   10.76530  -15.60874
      H1    13.52643   11.17917  -15.48470
       H    13.45942   14.15047  -17.65583
       O    14.07389   14.76708  -18.08834
      H1    14.22685   15.54802  -17.48968
       H    16.48761   14.40716  -17.02828
       O    16.58722   14.44485  -16.06706
      H1    15.85216   13.77763  -15.84769
       H    17.98571   13.23318  -14.93893
       O    18.55116   13.41404  -14.17192
      H1    18.27064   12.81237  -13.45363
       H    18.68096    7.24334  -16.46477
       O    19.68540    7.35648  -16.72731
      H1    19.94619    6.53041  -17.17803
       H    18.58735   10.94744  -18.42530
       O    17.66579   11.09482  -18.27019
      H1    17.37263   12.05119  -18.42788
       H    15.52433    9.68478  -15.99850
       O    16.25422   10.32142  -15.97543
      H1    16.66786   10.38542  -16.86256
       H    15.47550   11.79871  -15.11092
       O    14.96739   12.56190  -14.88246
      H1    14.74438   12.46141  -14.00574
       H    16.24711    6.40807  -16.72554
       O    17.02759    6.82459  -16.28099
      H1    16.70336    7.30635  -15.53728
       H    17.75624    7.92443  -14.03998
       O    16.97337    8.52149  -13.97438
      H1    17.05626    9.29733  -14.60686
       H    16.40911   13.98563  -19.37812
       O    16.83283   13.71268  -18.60537
      H1    17.80714   13.86204  -18.71852

