33
frame 4 | Written by MDAnalysis XYZWriter (release 2.4.3)
       H    -1.94081  -16.83517  -10.38801
       O    -2.83673  -16.45691  -10.26294
      H1    -2.73999  -15.51911  -10.13839
       H    -6.26044  -14.87338  -12.13215
       O    -5.29913  -14.64523  -12.00661
      H1    -5.35568  -13.71158  -12.26474
       H    -3.67327   -9.45381  -12.45051
       O    -3.94194   -9.61034  -11.52844
      H1    -3.34068   -9.16043  -10.93746
       H    -4.32118  -14.23322  -10.05342
       O    -3.46285  -13.81666   -9.78445
      H1    -3.69068  -13.18608   -9.04120
       H     0.34206  -13.98948  -11.44211
       O     0.05374  -14.24514  -12.35471
      H1    -0.34884  -13.51302  -12.83957
       H    -1.04185  -11.76158  -10.39303
       O    -0.17399  -11.73780   -9.91774
      H1     0.24994  -12.61167   -9.80985
       H    -2.75983  -11.54755   -7.56062
       O    -3.44986  -12.29352   -7.63803
      H1    -4.27023  -11.89998   -7.29929
       H    -0.59902  -11.16438   -8.08443
       O    -1.30875  -10.53926   -7.73034
      H1    -1.08652  -10.17049   -6.92055
       H    -3.04448  -11.23580  -11.20802
       O    -2.55057  -12.03209  -11.48159
      H1    -2.84970  -12.77276  -10.91593
       H    -1.70158  -12.93020  -14.73043
       O    -1.21655  -12.53230  -14.00764
      H1    -1.91551  -12.33286  -13.39025
       H    -1.91177   -7.96528   -9.29657
       O    -2.52567   -8.73573   -9.30028
      H1    -2.05025   -9.50140   -8.93057

