33
frame 4 | Written by MDAnalysis XYZWriter (release 2.4.3)
       H   -17.82524   -5.72677  -13.90524
       O   -18.78244   -5.45330  -13.94221
      H1   -19.21061   -5.69027  -13.08372
       H   -17.91191  -12.86654  -16.26837
       O   -18.02646  -13.70049  -15.78322
      H1   -18.50056  -14.34907  -16.34809
       H   -15.80341   -7.96564  -16.98786
       O   -16.72018   -7.68702  -17.10948
      H1   -16.98041   -8.10513  -17.94158
       H   -15.06736  -10.15664  -17.00784
       O   -14.45282   -9.58940  -16.56468
      H1   -14.50678  -10.03844  -15.68462
       H   -19.39074   -7.79376  -19.63193
       O   -19.24833   -8.12926  -18.75018
      H1   -19.73350   -8.95723  -18.72876
       H   -17.31204  -11.08051  -17.45783
       O   -16.98157  -11.07935  -16.53403
      H1   -17.24197  -10.19237  -16.20863
       H   -15.46021   -3.59059  -18.68916
       O   -14.64669   -3.16904  -18.92281
      H1   -14.81984   -2.75998  -19.80636
       H   -17.92429   -4.50845  -18.02240
       O   -16.95933   -4.54820  -18.21360
      H1   -16.70398   -5.26239  -17.65017
       H   -13.93004   -6.52322  -17.87746
       O   -13.77260   -6.32149  -18.76070
      H1   -13.83050   -5.36080  -18.78606
       H   -18.57587   -8.73545  -15.00396
       O   -17.60501   -8.91501  -14.87712
      H1   -17.13920   -8.44558  -15.56859
       H   -17.49400  -11.27085  -19.63572
       O   -18.08932  -11.79722  -19.10212
      H1   -17.79256  -12.65989  -19.36338

