33
frame 4 | Written by MDAnalysis XYZWriter (release 2.4.3)
       H     7.49327   10.31920    3.42533
       O     8.23870   10.62550    2.83969
      H1     7.91250   11.27871    2.25016
       H     9.22551    8.19181    4.82046
       O     8.95668    7.24854    4.68145
      H1     9.31083    7.00162    3.86715
       H    11.52505    7.19581    7.28126
       O    11.58971    8.00397    6.76660
      H1    10.76495    8.10017    6.30779
       H     9.88502   10.64614    5.39740
       O    10.09562    9.92294    4.75807
      H1     9.66426   10.20837    3.90290
       H    10.08843   14.45350    5.70552
       O    10.52330   13.58827    5.42667
      H1    11.42844   13.61577    5.79483
       H    14.17170   13.08452    5.97537
       O    13.25180   13.01163    5.79162
      H1    13.11061   12.10162    5.57232
       H     5.86142   11.29354    4.02178
       O     6.14002   10.41532    4.37876
      H1     5.45191    9.71731    4.17673
       H    10.24529   11.57085    7.71475
       O     9.62133   11.56890    6.93313
      H1     9.90200   12.38064    6.41893
       H     8.39971   10.26817    7.89089
       O     7.70403    9.66282    8.22367
      H1     7.52888    9.88083    9.13733
       H    13.01593   10.15999    4.30683
       O    12.39042   10.37676    3.55733
      H1    11.55095   10.24158    4.02529
       H    10.00279   13.24493    3.46701
       O     9.96333   13.31498    2.45703
      H1    10.88351   13.21374    2.13388

