33
frame 3 | Written by MDAnalysis XYZWriter (release 2.4.3)
       H    11.67363   -2.16215   -0.23780
       O    11.52586   -2.02732   -1.24841
      H1    11.92364   -2.80977   -1.62354
       H    13.54824   -4.72234   -4.15316
       O    14.25373   -5.38802   -4.12345
      H1    13.99528   -6.17537   -4.66487
       H    14.60825   -3.98486   -1.87465
       O    13.73475   -4.09860   -1.45270
      H1    13.21687   -4.64859   -2.04065
       H    10.62222   -4.88533    0.48570
       O     9.82880   -4.85750   -0.07890
      H1    10.21252   -4.91906   -1.01175
       H     8.23164   -7.26193   -1.00570
       O     8.60841   -7.03027   -1.87509
      H1     8.86640   -7.94032   -2.25808
       H    12.07504   -8.40913   -4.88361
       O    12.60129   -7.82420   -4.30102
      H1    13.07009   -8.40776   -3.68890
       H     8.50805   -2.41532   -1.73909
       O     8.79890   -2.42379   -2.65367
      H1     9.74833   -2.17782   -2.46627
       H    12.09359   -3.32584   -4.97220
       O    12.63701   -2.57695   -5.21839
      H1    12.34841   -2.37393   -6.11994
       H    11.46654   -5.84740   -2.20753
       O    11.30892   -4.93319   -2.42340
      H1    10.99432   -5.00310   -3.33907
       H    10.63165   -4.37539   -6.11069
       O    11.05645   -4.81423   -5.37290
      H1    10.69219   -5.70514   -5.33750
       H     7.58352   -5.77979   -4.95871
       O     7.82968   -6.61082   -4.54317
      H1     8.00292   -6.40957   -3.64378

