33
frame 3 | Written by MDAnalysis XYZWriter (release 2.4.3)
       H     7.09876  -17.57721   13.36182
       O     7.64888  -16.81883   13.14776
      H1     7.06277  -16.10423   13.19191
       H     6.52326  -18.54622   17.30873
       O     7.47795  -18.47124   17.12877
      H1     7.64982  -17.65862   16.69747
       H     9.40160  -13.81606   14.55397
       O     9.93416  -14.20119   15.26807
      H1     9.33265  -14.88038   15.61082
       H    12.95219  -13.36068   15.32271
       O    12.40646  -13.59216   16.08572
      H1    11.56715  -13.81356   15.64605
       H    11.04568  -15.51442   14.04147
       O    11.20840  -16.44378   13.78537
      H1    11.18017  -16.78648   14.67955
       H    10.84941  -12.96697   18.83414
       O    11.75838  -12.75452   18.66902
      H1    11.95370  -12.97517   17.74951
       H     7.71921  -16.49775   15.35583
       O     8.15415  -16.08687   16.12886
      H1     7.41554  -15.57680   16.45317
       H     8.03957  -12.01751   13.74769
       O     8.18351  -12.89643   13.51992
      H1     7.53631  -13.19530   12.90289
       H    13.07613  -16.08534   18.00854
       O    13.10075  -15.96375   17.03814
      H1    12.80613  -15.02146   16.81999
       H    10.49556  -18.23575   16.50796
       O    11.31535  -17.94829   16.06112
      H1    11.65252  -17.27640   16.65023
       H     6.41691  -13.48367   17.83567
       O     6.28744  -14.38463   17.46729
      H1     5.56902  -14.24884   16.80189

