33
frame 0 | Written by MDAnalysis XYZWriter (release 2.4.3)
       H     6.40597   13.45116   -1.35635
       O     5.75631   13.52971   -2.06527
      H1     6.22002   13.13731   -2.85474
       H     0.36955   11.90124   -1.09551
       O     1.07063   11.62635   -0.55017
      H1     1.78325   12.17624   -0.85325
       H     3.39923   13.73826    1.14044
       O     2.74962   14.41775    0.87322
      H1     3.21843   15.23129    1.18181
       H    -0.12193   15.35645    2.58920
       O     0.32729   14.52842    2.44960
      H1     1.21251   14.75160    2.04151
       H     6.21067   14.98882    2.45377
       O     6.98999   14.35434    2.49936
      H1     7.14072   13.85613    1.61856
       H     4.97636   11.27663    3.50900
       O     4.79331   11.01187    4.45170
      H1     3.89397   10.71089    4.33350
       H     0.95389   11.53443    2.81966
       O     1.56161   11.11712    2.22031
      H1     1.19941   11.44440    1.32533
       H     5.04698   16.98292    2.65306
       O     4.78228   16.06362    2.93081
      H1     3.89969   16.20042    3.30864
       H    -0.22292   12.47997    4.37528
       O     0.66573   12.81302    4.45730
      H1     0.73112   13.59603    3.84796
       H     2.76886   14.21908   -1.14369
       O     2.86813   13.49503   -1.77371
      H1     3.81292   13.46622   -1.90124
       H     4.30111   11.64045    0.90781
       O     4.03483   12.08421    1.75767
      H1     3.11115   11.81332    1.96371

