33
frame 4 | Written by MDAnalysis XYZWriter (release 2.4.3)
       H    -4.81517  -11.75821  -15.70066
       O    -4.58277  -12.64508  -15.36120
      H1    -4.15829  -13.17639  -16.09038
       H    -6.70022  -10.24509  -10.81041
       O    -6.61860   -9.70696  -11.62568
      H1    -5.73273   -9.39809  -11.57051
       H    -9.68318  -10.11791  -13.07174
       O   -10.07607  -10.95350  -13.20599
      H1    -9.46589  -11.54261  -13.73804
       H    -6.26044  -14.87338  -12.13215
       O    -5.29913  -14.64523  -12.00661
      H1    -5.35568  -13.71158  -12.26474
       H    -6.66187   -9.75630  -15.49200
       O    -5.99430  -10.33697  -15.90598
      H1    -5.82628   -9.97957  -16.80748
       H    -7.49174  -12.59857  -14.13420
       O    -8.36238  -12.66613  -14.57034
      H1    -8.23521  -12.57190  -15.53285
       H    -3.67327   -9.45381  -12.45051
       O    -3.94194   -9.61034  -11.52844
      H1    -3.34068   -9.16043  -10.93746
       H    -5.82159  -11.87615  -13.95715
       O    -6.22318  -12.12507  -13.10343
      H1    -6.48439  -11.34490  -12.62015
       H    -7.64362   -9.12541  -13.23379
       O    -7.94966   -8.80049  -14.09295
      H1    -7.91596   -7.84968  -13.98531
       H    -6.88346  -14.00598  -10.64345
       O    -6.98354  -14.30820   -9.73970
      H1    -7.90289  -14.60278   -9.71252
       H    -7.61096  -11.94455   -9.15308
       O    -6.99472  -11.19378   -9.30108
      H1    -7.42630  -10.50225   -8.80722

