33
frame 5 | Written by MDAnalysis XYZWriter (release 2.4.3)
       H     6.23089   -7.58783  -12.54539
       O     5.98125   -8.48132  -12.24190
      H1     6.79855   -8.95377  -12.15490
       H     8.05995   -9.74020   -9.76126
       O     8.45610   -9.68572   -8.86949
      H1     8.24877   -8.77418   -8.80766
       H     3.83931   -4.79835  -11.12771
       O     3.48446   -4.91670  -11.99875
      H1     2.67868   -5.40344  -11.90271
       H     3.87799  -10.17567   -8.89404
       O     3.48158   -9.37552   -8.51638
      H1     3.89010   -8.55297   -8.89005
       H     1.03403   -7.65768  -11.77777
       O     1.15150   -6.83685  -11.30262
      H1     1.40039   -7.06486  -10.42060
       H     5.21110   -3.78535   -9.58770
       O     4.54590   -4.46802   -9.73431
      H1     3.83095   -4.20824   -9.11228
       H     7.11686   -5.37088   -7.46108
       O     7.05103   -4.48566   -7.06229
      H1     6.16385   -4.04810   -7.03313
       H     2.50308   -8.72151   -6.93843
       O     1.85961   -8.62967   -6.20920
      H1     1.65081   -9.51374   -5.94662
       H     8.78848   -7.20792   -8.18833
       O     7.80931   -6.97036   -8.05275
      H1     7.54998   -6.47114   -8.82640
       H     4.92931  -10.28536  -12.15717
       O     4.85933  -11.12969  -12.49971
      H1     3.91048  -11.36956  -12.42402
       H     4.79845   -6.41638   -9.90199
       O     4.91051   -7.37244   -9.78998
      H1     5.45343   -7.62770  -10.50038

