33
frame 4 | Written by MDAnalysis XYZWriter (release 2.4.3)
       H    18.97511   17.34883  -17.52544
       O    19.85736   17.23581  -17.82787
      H1    19.78136   17.35414  -18.79439
       H    13.45942   14.15047  -17.65583
       O    14.07389   14.76708  -18.08834
      H1    14.22685   15.54802  -17.48968
       H    16.48761   14.40716  -17.02828
       O    16.58722   14.44485  -16.06706
      H1    15.85216   13.77763  -15.84769
       H    17.61513   16.61500  -16.13859
       O    17.31059   17.33879  -16.62845
      H1    16.34886   17.24610  -16.84216
       H    17.98571   13.23318  -14.93893
       O    18.55116   13.41404  -14.17192
      H1    18.27064   12.81237  -13.45363
       H    18.58735   10.94744  -18.42530
       O    17.66579   11.09482  -18.27019
      H1    17.37263   12.05119  -18.42788
       H    15.52433    9.68478  -15.99850
       O    16.25422   10.32142  -15.97543
      H1    16.66786   10.38542  -16.86256
       H    15.47550   11.79871  -15.11092
       O    14.96739   12.56190  -14.88246
      H1    14.74438   12.46141  -14.00574
       H    20.19459   15.88406  -14.74272
       O    19.25677   15.95818  -15.06886
      H1    18.84287   15.13811  -14.77816
       H    15.01344   17.65199  -15.81448
       O    14.76875   17.12180  -16.62142
      H1    13.93796   17.47746  -17.00090
       H    16.40911   13.98563  -19.37812
       O    16.83283   13.71268  -18.60537
      H1    17.80714   13.86204  -18.71852

