33
frame 5 | Written by MDAnalysis XYZWriter (release 2.4.3)
       H     9.52591   17.46839    2.76939
       O     8.80400   17.99544    3.00244
      H1     8.38326   17.50250    3.68881
       H    10.56096   19.33543    1.03674
       O    11.33943   19.54896    1.48667
      H1    11.25477   19.23683    2.39046
       H    14.72875   17.88025    3.47856
       O    13.85415   17.51929    3.12982
      H1    13.28677   17.47865    3.90999
       H    11.70934   17.58235    8.98607
       O    11.62368   18.39616    8.47299
      H1    10.68705   18.54955    8.41619
       H     7.91037   18.70121    7.59366
       O     7.79927   18.09363    6.85375
      H1     7.10553   18.36256    6.24000
       H     9.17212   16.36321    7.21308
       O     9.66627   15.82594    6.60090
      H1     9.12585   15.61840    5.84558
       H    11.51746   19.34710    4.74900
       O    10.60692   19.49238    4.37760
      H1    10.18154   18.63719    4.44563
       H     6.76350   19.45438    1.12971
       O     7.04714   18.52636    1.17972
      H1     7.75363   18.64688    1.85547
       H    11.90151   17.72470    6.84164
       O    11.80501   17.40914    5.90095
      H1    11.14193   16.75388    6.06889
       H    10.64840   16.15495    0.63309
       O    10.30687   15.83462    1.48197
      H1    10.63265   14.91036    1.61201
       H     5.51058   18.46157    4.20941
       O     6.43697   18.59725    4.48436
      H1     6.66665   19.47314    4.22346

