33
frame 0 | Written by MDAnalysis XYZWriter (release 2.4.3)
       H    -5.51197   -8.80408    5.63032
       O    -6.10040   -8.15842    5.24421
      H1    -6.87330   -8.66249    5.05066
       H    -7.45684   -7.81567    2.44221
       O    -8.03462   -7.11317    2.06419
      H1    -7.99618   -7.35725    1.09573
       H    -5.24659  -10.19080    7.17995
       O    -4.98513  -10.47687    6.28647
      H1    -5.47140  -11.34726    6.26180
       H    -5.52037  -11.68781    0.92076
       O    -5.93558  -11.40426    1.72796
      H1    -5.77594  -12.13234    2.39042
       H    -8.65744  -10.27107    4.23577
       O    -8.25058   -9.63215    4.85058
      H1    -8.86171   -8.92134    5.03193
       H    -6.27314  -13.22870    4.33980
       O    -5.91143  -13.53762    3.47178
      H1    -6.56313  -14.12585    3.14371
       H    -1.48845  -10.53628    2.99347
       O    -2.06066  -10.88022    2.24687
      H1    -2.56586  -10.11078    1.98353
       H    -4.33309  -10.33414   -1.36988
       O    -4.86009  -10.84759   -0.73585
      H1    -4.71056  -11.75731   -1.04272
       H    -4.21186   -8.53092    1.70328
       O    -3.34406   -8.14096    1.64851
      H1    -3.05629   -8.38329    0.75968
       H    -7.77603  -12.27474    0.98333
       O    -8.41518  -13.00070    1.04387
      H1    -9.11651  -12.80611    0.42337
       H    -5.74935   -9.71788    2.32985
       O    -5.92576   -8.77388    2.48648
      H1    -5.67670   -8.62661    3.42169

