33
frame 4 | Written by MDAnalysis XYZWriter (release 2.4.3)
       H    -3.32637   -2.07765  -17.28077
       O    -2.84670   -2.79398  -16.83456
      H1    -2.85589   -2.51937  -15.89520
       H    -2.75228   -1.13055  -15.00199
       O    -2.63729   -1.82669  -14.40430
      H1    -2.47231   -1.37247  -13.52749
       H    -3.19633   -6.41665  -17.11537
       O    -3.81199   -5.69812  -17.29784
      H1    -3.37071   -4.86208  -17.16632
       H    -4.40188   -1.39778  -18.93758
       O    -4.02128   -0.71226  -18.31895
      H1    -3.19931   -0.54568  -18.84136
       H    -3.38129    0.43666  -12.30181
       O    -2.54500    0.00830  -12.46210
      H1    -2.19550   -0.20534  -11.55779
       H     1.94714   -0.73741  -14.07579
       O     1.14736   -1.08137  -14.45813
      H1     0.74974   -1.80294  -13.95585
       H    -1.49459   -0.01557  -16.74579
       O    -2.08294    0.50359  -16.16096
      H1    -1.58712    0.81323  -15.39747
       H     0.29586   -0.82707  -17.80600
       O    -0.62878   -1.13372  -18.02481
      H1    -0.72112   -2.07691  -17.87738
       H    -4.10132   -6.03677  -15.21779
       O    -4.24258   -6.60750  -14.44711
      H1    -5.17578   -6.52147  -14.26864
       H     1.40350   -3.49008  -12.89170
       O     0.45740   -3.34081  -13.07570
      H1     0.29595   -3.98862  -13.74222
       H    -6.21641   -3.01778  -14.38711
       O    -5.69465   -3.64861  -13.90458
      H1    -4.83989   -3.36529  -14.05230

