33
frame 0 | Written by MDAnalysis XYZWriter (release 2.4.3)
       H   -16.10579    6.04710    7.82897
       O   -15.38170    5.36409    7.95221
      H1   -14.84145    5.47625    8.77157
       H   -16.87246    3.42592    7.56247
       O   -17.18463    2.62296    7.17078
      H1   -17.96190    2.35766    7.61878
       H   -12.15996    4.38331    7.89592
       O   -11.89091    4.93731    8.60470
      H1   -12.52580    4.86308    9.32366
       H   -15.81512    2.14428    4.65018
       O   -16.12531    1.39361    5.10707
      H1   -16.55605    1.71294    5.92405
       H   -12.23704    7.61502    4.11316
       O   -12.64553    6.68733    3.94157
      H1   -13.14190    6.58061    4.76639
       H   -11.63082    4.97902    2.65424
       O   -11.46612    4.22371    2.06321
      H1   -11.78450    3.44049    2.56522
       H   -16.35111    3.64554    3.25648
       O   -15.39016    3.62168    3.54866
      H1   -14.89752    3.71295    2.72938
       H   -13.18912    1.83733    7.26112
       O   -12.55406    2.38264    6.81482
      H1   -13.15676    3.05075    6.42476
       H   -13.80135    6.93370    2.27753
       O   -14.66027    6.94546    1.88112
      H1   -14.55207    6.58585    1.03236
       H   -14.69220    4.56276    6.48987
       O   -14.10322    4.38917    5.71588
      H1   -14.70049    4.21367    4.96816
       H   -14.61637    6.86672    6.68200
       O   -14.17760    7.64247    6.33466
      H1   -14.90931    8.21456    6.23586

