33
frame 4 | Written by MDAnalysis XYZWriter (release 2.4.3)
       H   -12.82478    3.47650   -1.59593
       O   -12.63541    3.81010   -2.48965
      H1   -12.62432    4.76621   -2.34593
       H   -13.34013   -3.66357   -0.47276
       O   -12.40169   -3.54179   -0.62242
      H1   -11.95947   -3.47549    0.21162
       H   -11.61274    0.40051    1.99531
       O   -11.24032    0.99547    1.30406
      H1   -10.45262    0.65491    0.92060
       H   -12.26780   -1.32647   -4.37922
       O   -12.19455   -1.41719   -5.35202
      H1   -12.55984   -0.63732   -5.70883
       H   -10.65306    0.90679   -1.80583
       O   -11.48501    1.14554   -2.26046
      H1   -11.23571    1.57817   -3.11896
       H   -11.56494   -4.26694   -3.55591
       O   -11.12828   -4.47874   -2.72655
      H1   -11.69818   -4.07484   -1.99922
       H   -12.82318    1.51878   -1.13813
       O   -13.33635    1.70950   -0.30688
      H1   -12.67399    1.46744    0.34881
       H   -11.80859    2.51213   -5.46024
       O   -11.21263    2.63504   -4.70239
      H1   -11.80693    3.03540   -3.98979
       H   -14.69222   -1.50533   -2.30378
       O   -15.52781   -1.49101   -1.84398
      H1   -16.00157   -0.91032   -2.41288
       H   -12.27754   -0.38479   -2.24508
       O   -12.84570   -1.23342   -2.31569
      H1   -12.59973   -1.75304   -1.50930
       H    -8.80117   -0.20274   -0.15469
       O    -9.15535    0.62536   -0.49350
      H1    -8.68627    1.28854    0.01230

