33
frame 4 | Written by MDAnalysis XYZWriter (release 2.4.3)
       H    -8.21926    1.28508   12.13443
       O    -7.83009    0.41708   12.27728
      H1    -7.32332    0.48592   13.10509
       H   -13.95667   -0.68782   14.88599
       O   -13.18199   -0.93147   14.46374
      H1   -13.36092   -1.50716   13.70523
       H   -10.77242   -4.84764    8.91201
       O   -10.58895   -5.54969    9.56773
      H1    -9.85140   -6.00018    9.14783
       H    -8.08747   -4.08626   13.31612
       O    -7.51945   -3.70708   14.00733
      H1    -6.62684   -4.00721   13.68105
       H    -9.41275   -4.53434   10.66691
       O    -8.83344   -4.27606   11.36793
      H1    -8.10793   -3.77361   10.95115
       H    -6.92464   -2.10840   10.38864
       O    -6.61439   -2.96799   10.80865
      H1    -6.19419   -2.72874   11.63021
       H   -13.77289   -2.90742   12.14997
       O   -13.40474   -2.03318   12.06532
      H1   -12.47970   -2.28712   11.81705
       H    -9.73752   -2.95241   11.67370
       O   -10.41191   -2.19993   11.53889
      H1    -9.95706   -1.36491   11.38517
       H   -11.92358    0.80373   10.53940
       O   -11.05455    0.80824   10.95985
      H1   -11.30114    0.42670   11.83782
       H    -8.43379   -0.55665    9.28140
       O    -7.60424   -0.65726    9.77264
      H1    -7.72546   -0.22690   10.69067
       H   -11.55624   -2.37077    9.66510
       O   -12.18544   -2.64093    9.02144
      H1   -11.72852   -2.97876    8.24006

