33
frame 5 | Written by MDAnalysis XYZWriter (release 2.4.3)
       H     3.29875   16.85087  -15.70942
       O     3.22166   17.79991  -15.94057
      H1     3.44586   17.82368  -16.87629
       H     6.52919   16.24340  -12.99391
       O     6.34287   16.85427  -13.70929
      H1     6.98919   17.54845  -13.47760
       H     0.20503   16.35047  -13.42838
       O     0.45520   15.70611  -12.76790
      H1     0.48069   16.27403  -11.97894
       H     2.62851   14.28997  -14.85350
       O     2.87173   15.14562  -15.30844
      H1     3.21606   14.83848  -16.18754
       H     6.03935   16.12014  -15.60352
       O     6.24857   15.51474  -16.37755
      H1     5.48010   15.49141  -16.93069
       H     0.76673   15.31993  -18.14400
       O     1.06042   16.19737  -17.87750
      H1     1.47215   16.10136  -17.02705
       H     4.51141   17.47787  -13.15542
       O     3.76457   17.88700  -12.70711
      H1     3.22798   17.17906  -12.27053
       H     3.52059   13.80767  -17.83124
       O     4.22762   14.49542  -17.77943
      H1     3.98225   15.20828  -18.40892
       H     1.39395   17.64578  -15.19728
       O     0.43171   17.69974  -14.86710
      H1     0.40161   18.16713  -14.09234
       H     3.06134   17.27416  -19.06820
       O     3.96914   17.23018  -18.81725
      H1     4.29504   18.12233  -19.11722
       H     0.92962   18.03990  -18.63722
       O     1.19422   18.87145  -19.05322
      H1     1.07427   19.52401  -18.40380

