33
frame 4 | Written by MDAnalysis XYZWriter (release 2.4.3)
       H     6.20401  -17.19101   13.56045
       O     6.45884  -16.31626   13.14321
      H1     5.63934  -16.06217   12.70284
       H     6.51124  -19.63762   14.04482
       O     5.88019  -18.95075   13.73199
      H1     5.19068  -18.92155   14.42251
       H     2.62079  -20.14344   13.16122
       O     2.24535  -19.26637   13.20655
      H1     2.75916  -18.75217   13.89292
       H     3.82075  -19.80798    7.71655
       O     3.74940  -19.08813    8.33133
      H1     3.85478  -18.23128    7.95806
       H     3.14521  -16.15449    7.19235
       O     3.48261  -16.26128    8.05090
      H1     2.69023  -16.01942    8.59620
       H     3.83438  -19.64953   15.90010
       O     3.97905  -18.75028   15.65988
      H1     4.56076  -18.42981   16.39286
       H     2.73003  -18.72994   11.65274
       O     2.94305  -18.14332   10.88613
      H1     2.74350  -18.57167   10.08850
       H     1.29066  -15.42417   10.66671
       O     0.96515  -16.13984   10.06917
      H1     1.33823  -16.91309   10.53634
       H     0.90942  -19.57183   14.38981
       O     0.43767  -19.49697   15.20704
      H1    -0.04465  -18.69931   15.19814
       H     5.69275  -19.02428   11.75902
       O     6.07597  -19.15044   10.89063
      H1     5.27008  -19.13437   10.32298
       H     3.68022  -15.07911   11.64734
       O     3.76476  -15.75712   12.39659
      H1     3.57518  -16.55845   11.88729

