33
frame 4 | Written by MDAnalysis XYZWriter (release 2.4.3)
       H    -8.21926    1.28508   12.13443
       O    -7.83009    0.41708   12.27728
      H1    -7.32332    0.48592   13.10509
       H    -8.87666    3.38258   10.84521
       O    -9.15925    2.77687   11.51592
      H1    -9.94388    2.25253   11.15959
       H    -9.41275   -4.53434   10.66691
       O    -8.83344   -4.27606   11.36793
      H1    -8.10793   -3.77361   10.95115
       H    -6.92464   -2.10840   10.38864
       O    -6.61439   -2.96799   10.80865
      H1    -6.19419   -2.72874   11.63021
       H    -5.94546    1.59888    6.88154
       O    -5.86851    1.38766    5.95928
      H1    -4.99385    1.76155    5.79648
       H   -10.34787    0.06346    7.58574
       O    -9.66359   -0.63664    7.79795
      H1   -10.02545   -1.56842    7.82693
       H    -9.73752   -2.95241   11.67370
       O   -10.41191   -2.19993   11.53889
      H1    -9.95706   -1.36491   11.38517
       H   -11.92358    0.80373   10.53940
       O   -11.05455    0.80824   10.95985
      H1   -11.30114    0.42670   11.83782
       H    -8.43379   -0.55665    9.28140
       O    -7.60424   -0.65726    9.77264
      H1    -7.72546   -0.22690   10.69067
       H    -4.02564    1.51892   11.85533
       O    -4.82149    1.79503   11.43018
      H1    -5.41289    1.01900   11.47971
       H    -6.83668    0.80141    8.68127
       O    -6.25015    1.60068    8.58984
      H1    -5.61984    1.41302    9.31606

