33
frame 4 | Written by MDAnalysis XYZWriter (release 2.4.3)
       H    -5.14764   12.60283   15.02320
       O    -5.22347   12.93749   15.92034
      H1    -5.60484   13.84225   16.00492
       H    -8.70511   15.38885   14.13181
       O    -8.14335   14.70673   13.69572
      H1    -8.78317   14.13030   13.30691
       H    -9.33185   14.20543   17.83877
       O   -10.10876   14.56454   17.43796
      H1   -10.51393   15.27758   18.02386
       H    -7.61958   16.54739   19.46073
       O    -6.76689   16.45216   18.98461
      H1    -6.84950   17.01447   18.22511
       H   -10.55735   15.63215   14.74465
       O    -9.91405   16.04753   15.29419
      H1    -9.77367   15.41228   16.01774
       H    -8.98943   18.63075   16.81803
       O    -9.78062   19.18922   16.84243
      H1    -9.41777   20.03851   16.98463
       H    -3.95658   18.96238   13.85577
       O    -4.86156   18.62473   13.84921
      H1    -4.91432   18.14527   13.01391
       H    -6.76516   15.20434   14.84655
       O    -6.28410   15.37155   15.69095
      H1    -5.37125   15.57433   15.45535
       H    -8.39429   18.36297   12.92208
       O    -8.89474   19.04904   13.32162
      H1    -9.80114   18.73680   13.58904
       H    -3.85234   17.48479   15.11239
       O    -3.58045   16.59467   15.30120
      H1    -3.19629   16.56658   16.17334
       H    -7.45990   17.14989   16.38988
       O    -7.35283   17.97808   16.93483
      H1    -6.67491   18.46088   16.52684

