33
frame 4 | Written by MDAnalysis XYZWriter (release 2.4.3)
       H    14.17513   11.72641   -4.21440
       O    14.53905   12.31736   -3.57067
      H1    13.94834   13.07916   -3.50578
       H    16.37122   10.45767   -3.19374
       O    17.13833   10.14739   -2.66128
      H1    16.66035    9.90430   -1.88640
       H    14.49758   10.82328   -0.15379
       O    15.25150   11.19335    0.28678
      H1    14.85516   11.50841    1.07816
       H    16.54765    9.94302    0.46938
       O    16.95218    9.11116    0.57902
      H1    16.15130    8.53413    0.74118
       H    11.78688   10.76150   -2.24263
       O    12.03054    9.86855   -2.58633
      H1    11.44534    9.53578   -3.24663
       H    13.49123    5.40081   -2.89224
       O    12.91568    6.12589   -3.25130
      H1    13.44038    6.78492   -3.75164
       H    12.68334   10.31414   -6.46393
       O    13.47745   10.41735   -5.96014
      H1    13.50883    9.56631   -5.42427
       H    14.95176    6.85426    0.19834
       O    14.30427    7.59400    0.28308
      H1    13.46231    7.29709   -0.08038
       H    13.62090    9.53013   -1.98293
       O    14.58381    9.45217   -1.85826
      H1    14.73402    8.74792   -1.25245
       H    14.82155    7.42646   -4.43715
       O    14.12821    8.14062   -4.36125
      H1    14.36759    8.61169   -3.59779
       H    15.92413   12.56021   -2.36803
       O    16.24481   13.18553   -1.64150
      H1    16.34540   12.53333   -0.89651

