33
frame 5 | Written by MDAnalysis XYZWriter (release 2.4.3)
       H    16.95305  -10.76368   14.98788
       O    17.14637  -11.49676   15.64704
      H1    16.37020  -11.48915   16.16771
       H    17.66344  -15.41367   18.00734
       O    17.49965  -15.96903   17.26962
      H1    18.27047  -16.45075   16.98637
       H    19.75127  -17.96243   16.28389
       O    19.86537  -17.45314   17.13696
      H1    19.21321  -17.81691   17.73633
       H    14.56113  -13.11045   17.35327
       O    14.93941  -12.26220   17.11463
      H1    14.40707  -11.68774   17.73006
       H    18.55087  -18.80598   20.04861
       O    18.71847  -19.07579   19.08501
      H1    19.70024  -19.16941   19.11709
       H    17.55739  -13.95832   19.68356
       O    18.32795  -14.15189   19.10279
      H1    18.67856  -13.39484   18.65291
       H    19.80527  -12.79448   16.37080
       O    19.32467  -12.24450   16.97886
      H1    18.51264  -11.95701   16.55266
       H    16.61443   -8.68653   18.94661
       O    16.71049   -9.56510   18.49222
      H1    17.15737  -10.12068   19.15902
       H    14.93418  -14.61745   18.85998
       O    14.34411  -15.09147   18.19654
      H1    14.85816  -15.94187   18.19452
       H    16.44757  -15.83759   15.69628
       O    15.91412  -15.79827   14.91243
      H1    15.20084  -16.43293   14.93044
       H    14.64920  -17.95096   17.30303
       O    15.33106  -17.65057   17.92576
      H1    16.04254  -17.12419   17.42416

