33
frame 6 | Written by MDAnalysis XYZWriter (release 2.4.3)
       H    -9.01481   19.45953   -7.26246
       O    -9.05692   19.31611   -6.30297
      H1    -9.92364   19.45925   -5.88444
       H   -11.84463   20.03288   -4.97813
       O   -11.10908   19.56420   -4.62133
      H1   -11.23336   18.66342   -4.32268
       H    -9.72485   17.21852   -9.60352
       O   -10.09213   17.31892  -10.50787
      H1    -9.31399   17.68330  -10.96119
       H   -10.66085   16.22900   -3.58255
       O   -10.75136   17.18913   -3.35251
      H1    -9.90949   17.47805   -3.01719
       H    -9.33093   18.96831   -9.44996
       O    -8.67487   19.58512   -9.21380
      H1    -7.84755   19.14634   -8.98159
       H   -10.14846   16.78054   -6.73380
       O   -10.83598   16.53854   -7.38562
      H1   -11.61828   16.58144   -6.82777
       H    -8.56496   17.68042   -5.98816
       O    -8.53918   16.74397   -5.76438
      H1    -7.84965   16.28984   -6.30151
       H    -5.88002   17.18107   -8.83249
       O    -6.21220   18.04685   -9.14963
      H1    -5.56385   18.69679   -8.97123
       H    -8.05377   17.32502   -4.05497
       O    -7.93044   17.43521   -3.10832
      H1    -7.49837   18.31160   -2.98471
       H    -6.34295   14.61002   -6.95498
       O    -6.51870   15.50366   -7.03778
      H1    -5.71143   15.91236   -6.67921
       H   -11.47737   20.01547  -10.69508
       O   -12.03768   19.37675  -10.17498
      H1   -11.55149   18.53175  -10.36790

