33
frame 5 | Written by MDAnalysis XYZWriter (release 2.4.3)
       H   -15.59050   12.22934    2.50012
       O   -16.30033   12.63045    2.96547
      H1   -16.53094   13.40279    2.37749
       H   -17.03827   17.69009    5.77177
       O   -17.22970   18.65586    5.90938
      H1   -17.28360   18.66265    6.90892
       H   -20.15042   16.28201   -3.27509
       O   -19.43267   15.69082   -3.48785
      H1   -18.81910   15.68557   -2.75932
       H   -12.91876   19.50742    2.66851
       O   -13.63055   19.47539    3.32405
      H1   -14.06556   18.65355    3.15070
       H   -18.55128   17.16833    1.84317
       O   -18.41797   18.05520    1.62092
      H1   -19.27849   18.45706    1.83997
       H   -15.65296   16.34392    6.34077
       O   -16.38588   16.26161    5.73109
      H1   -16.10401   16.40619    4.79341
       H   -16.44584   14.70085    0.57902
       O   -16.78731   14.78879    1.45657
      H1   -17.72338   14.64391    1.26923
       H   -17.46155   18.46218    0.15058
       O   -17.11438   18.82824   -0.70168
      H1   -16.20481   18.84049   -0.49987
       H   -16.76422   17.59808    2.86038
       O   -15.82612   17.38651    2.96807
      H1   -15.68037   16.62543    2.36185
       H   -18.29440   15.81746    6.06961
       O   -19.20151   15.52692    6.09114
      H1   -19.58102   15.94868    6.85662
       H   -17.46916   15.94502   -1.01817
       O   -17.84626   15.09446   -1.27890
      H1   -18.68292   15.01976   -0.81183

