33
frame 6 | Written by MDAnalysis XYZWriter (release 2.4.3)
       H    -6.04559  -17.47590    6.10392
       O    -5.33354  -17.37136    5.51081
      H1    -5.65411  -17.44229    4.62286
       H    -2.78718  -17.04538    7.50458
       O    -2.44025  -16.43050    6.81192
      H1    -2.58952  -16.92341    5.98232
       H    -7.56073  -17.57158    2.89169
       O    -6.71625  -17.16097    2.99348
      H1    -6.66922  -16.48703    2.26639
       H    -2.04752  -17.24141    3.90925
       O    -2.39197  -17.95267    4.40377
      H1    -1.64092  -18.54770    4.54010
       H    -3.70856  -18.72314    7.97620
       O    -3.41894  -18.39295    8.88806
      H1    -2.44894  -18.41267    8.93949
       H    -3.82971  -15.02347    6.46326
       O    -4.09480  -14.17990    6.02648
      H1    -4.98383  -14.36371    5.72155
       H    -7.21788  -13.94565    4.99048
       O    -6.31213  -14.26151    4.66739
      H1    -6.33176  -15.23564    4.60120
       H    -8.07644  -18.16006    6.35064
       O    -7.45753  -18.14615    7.09871
      H1    -7.33564  -17.27312    7.52189
       H    -3.88335  -18.38210    2.99133
       O    -4.50513  -18.88672    2.39390
      H1    -5.37125  -18.56135    2.70206
       H    -7.60079  -15.30330    8.27884
       O    -6.78342  -15.66218    8.00276
      H1    -6.22831  -15.65260    8.77813
       H    -4.66818  -18.72927    5.99079
       O    -4.14756  -19.43916    6.46694
      H1    -3.32838  -19.45397    5.96306

