33
frame 5 | Written by MDAnalysis XYZWriter (release 2.4.3)
       H     1.78607   15.83209   -1.64028
       O     0.87192   15.62864   -1.38409
      H1     0.29900   15.79718   -2.11717
       H     3.62544   18.41648   -4.60195
       O     3.18833   18.68738   -3.77534
      H1     2.52729   19.35949   -3.99138
       H     2.13520   19.44095   -0.10907
       O     2.12122   19.23467    0.85766
      H1     1.29512   18.76475    1.05154
       H     3.45789   20.10499    4.51851
       O     3.53588   19.10447    4.65938
      H1     3.52501   18.65365    3.78218
       H     3.23841   16.99925   -3.39065
       O     3.29072   16.03726   -3.20091
      H1     4.14846   15.93577   -2.73530
       H     0.92436   18.45021    4.41313
       O     0.79278   17.48064    4.57318
      H1     1.23924   17.29720    5.40987
       H     4.70070   14.65260    1.81793
       O     4.79130   15.41111    1.22730
      H1     4.56209   16.18878    1.76286
       H     5.85400   17.95870   -1.91746
       O     5.21426   18.71437   -1.75941
      H1     4.75510   18.92338   -2.58640
       H    -1.00409   18.39825    1.41751
       O    -0.34945   17.98315    0.81563
      H1    -0.19793   17.07829    1.07885
       H    -2.05337   18.02797   -0.32758
       O    -2.66282   18.65993   -0.74165
      H1    -3.39551   18.89263   -0.11187
       H     5.26796   17.82201    1.95200
       O     4.30820   17.89381    2.19585
      H1     3.84385   18.40891    1.54128

