33
frame 5 | Written by MDAnalysis XYZWriter (release 2.4.3)
       H     1.21456   17.38110  -10.16670
       O     1.77974   16.71976  -10.54155
      H1     2.34505   16.47968   -9.73481
       H     3.29875   16.85087  -15.70942
       O     3.22166   17.79991  -15.94057
      H1     3.44586   17.82368  -16.87629
       H     6.52919   16.24340  -12.99391
       O     6.34287   16.85427  -13.70929
      H1     6.98919   17.54845  -13.47760
       H     0.20503   16.35047  -13.42838
       O     0.45520   15.70611  -12.76790
      H1     0.48069   16.27403  -11.97894
       H     2.62851   14.28997  -14.85350
       O     2.87173   15.14562  -15.30844
      H1     3.21606   14.83848  -16.18754
       H     6.03935   16.12014  -15.60352
       O     6.24857   15.51474  -16.37755
      H1     5.48010   15.49141  -16.93069
       H     5.20172   16.17671  -10.06688
       O     5.86494   15.93022  -10.80166
      H1     6.70056   15.93676  -10.27445
       H     4.51141   17.47787  -13.15542
       O     3.76457   17.88700  -12.70711
      H1     3.22798   17.17906  -12.27053
       H     1.39395   17.64578  -15.19728
       O     0.43171   17.69974  -14.86710
      H1     0.40161   18.16713  -14.09234
       H     6.02383   17.79626  -10.93595
       O     5.59727   18.64358  -10.84252
      H1     4.76033   18.55129  -11.35113
       H     5.36104   14.11622  -11.24897
       O     4.85253   13.29622  -11.54945
      H1     3.94793   13.45436  -11.19085

