33
frame 5 | Written by MDAnalysis XYZWriter (release 2.4.3)
       H     5.25317   11.90856   14.21829
       O     5.95168   12.00423   14.85240
      H1     6.39164   11.12500   14.90287
       H     3.30691   12.82462   13.32531
       O     3.83714   12.05112   13.09549
      H1     4.56095   12.31063   12.56886
       H     6.97698   16.25835   13.82379
       O     7.77893   15.98829   14.36356
      H1     7.84241   14.98760   14.18220
       H    10.81297   14.20581   15.18350
       O    10.69824   13.21376   15.24582
      H1    11.24898   12.91009   14.48869
       H     9.05048   13.14075   14.32891
       O     8.23991   13.31228   13.75510
      H1     7.53830   12.85813   14.27661
       H     5.94678   13.35596   10.96125
       O     5.70802   12.43080   11.24075
      H1     4.83783   12.22796   10.85581
       H     6.77621   10.82160   11.08335
       O     7.45430   10.17798   10.90343
      H1     8.32057   10.62685   11.13800
       H     8.82741   12.54948   12.21210
       O     9.32890   12.01075   11.62797
      H1     9.92441   11.48861   12.26187
       H    10.90648   14.56627   10.38588
       O    11.14183   13.81069   10.89408
      H1    10.34707   13.29964   11.18091
       H    11.97310   13.31486   12.23668
       O    12.37249   12.98405   13.04957
      H1    12.78998   12.21358   12.71542
       H     9.27953   15.87660   15.23572
       O    10.19066   15.88296   15.63466
      H1    10.59865   16.77805   15.48281

