33
frame 5 | Written by MDAnalysis XYZWriter (release 2.4.3)
       H    13.75571    4.39044    1.94718
       O    14.20512    4.81242    1.16342
      H1    15.13711    4.91764    1.40764
       H    14.74530    3.03246    5.38410
       O    14.82837    2.40869    4.60616
      H1    14.18021    2.72779    3.96977
       H    14.78462    0.55199    0.02911
       O    14.01906    1.16726   -0.05939
      H1    14.33521    1.97417    0.38705
       H    11.81422   -1.64668    2.03013
       O    11.16394   -2.02434    1.46457
      H1    11.03711   -2.94314    1.73319
       H    10.53829    5.03638    1.10627
       O    10.49813    4.14502    0.84521
      H1    10.52662    4.25066   -0.13856
       H    10.44882    1.08751   -1.56944
       O     9.74757    1.68865   -1.25585
      H1     9.04125    1.62983   -1.90654
       H    12.92664    0.27486   -1.51474
       O    12.19106    0.34405   -2.10791
      H1    11.65499   -0.51221   -1.96390
       H    12.42263    1.45644    1.13993
       O    11.76692    1.89659    1.66502
      H1    11.51059    2.73177    1.25802
       H    13.34156   -1.50110    3.98062
       O    13.04187   -1.02856    3.21362
      H1    12.71824   -0.20682    3.56268
       H    10.49240    0.33070    4.29966
       O    10.99670    1.19724    4.14747
      H1    10.99957    1.25103    3.16111
       H     9.44153    0.18715    0.02231
       O     8.89880   -0.52892    0.36413
      H1     9.45373   -1.07178    0.97271

