33
frame 6 | Written by MDAnalysis XYZWriter (release 2.4.3)
       H    -3.81941   -2.85019   11.72146
       O    -3.52655   -1.96777   11.36624
      H1    -3.46000   -1.51453   12.22812
       H    -1.50090   -1.00053   13.97951
       O    -2.39907   -0.99065   13.64430
      H1    -2.80054   -0.14791   13.92454
       H    -0.15067   -3.44155    8.30026
       O    -0.92008   -2.90263    8.54735
      H1    -1.02437   -2.24209    7.86393
       H     2.46036   -0.23619    9.97387
       O     2.61031   -1.19190    9.73643
      H1     3.51850   -1.29257    9.48335
       H    -2.06679   -4.88850   11.13597
       O    -1.72335   -5.17901   12.04506
      H1    -2.38024   -4.89862   12.64682
       H    -1.62946   -1.13471   11.33077
       O    -0.81952   -1.28690   10.81529
      H1    -1.06396   -1.75784    9.99514
       H    -5.82550   -1.77083    9.05657
       O    -5.56823   -2.61787    9.48965
      H1    -5.02500   -2.29561   10.22936
       H    -2.04360   -4.22247    9.04194
       O    -2.29958   -5.04346    9.52882
      H1    -3.28966   -5.09195    9.47773
       H     0.11738    0.24681   10.66324
       O     0.81867    1.01018   10.61179
      H1     0.83672    1.39291    9.68246
       H    -0.19504   -4.17999   11.82768
       O     0.65713   -3.60439   11.75575
      H1     0.25688   -2.81967   11.37234
       H    -4.37900    2.03058    9.49243
       O    -3.46856    1.86511    9.71847
      H1    -3.42471    1.17708   10.42061

