33
frame 5 | Written by MDAnalysis XYZWriter (release 2.4.3)
       H    13.38159   -0.22338  -10.72813
       O    12.63609    0.32019  -10.42587
      H1    11.82605   -0.18583  -10.47381
       H    12.54529    0.05043   -7.50128
       O    13.05529   -0.68163   -7.87821
      H1    12.91746   -0.56172   -8.87986
       H    11.21506   -3.14123  -10.60088
       O    11.51931   -3.93258  -11.08982
      H1    11.53004   -3.54067  -11.93079
       H    12.24845   -1.50223  -13.63166
       O    12.01786   -2.41855  -13.53819
      H1    12.82256   -2.91053  -13.93342
       H    14.66619   -2.16122  -11.67539
       O    14.12769   -1.94806  -10.90175
      H1    13.82069   -2.79200  -10.61894
       H    16.66463   -1.98758   -8.92278
       O    16.71359   -1.45381   -9.75004
      H1    15.86334   -1.68723  -10.18555
       H    12.37458   -4.43290   -8.65122
       O    13.28405   -4.15907   -8.58087
      H1    13.44405   -3.82584   -7.70030
       H    10.07991   -1.26386   -9.80861
       O    10.49636   -1.38724  -10.67609
      H1     9.74803   -1.55452  -11.25508
       H    13.88333   -6.58313  -11.71425
       O    13.49910   -5.89556  -12.31894
      H1    12.94757   -5.37876  -11.70146
       H    16.93884   -2.58598  -13.47622
       O    16.07273   -2.30791  -13.05446
      H1    15.96049   -1.37753  -13.23381
       H    15.74672   -6.42209   -9.69844
       O    15.65586   -5.62942   -9.16328
      H1    14.70779   -5.36898   -9.22438

