33
frame 6 | Written by MDAnalysis XYZWriter (release 2.4.3)
       H   -19.53131   15.74837  -18.56108
       O   -19.87319   14.80854  -18.49956
      H1   -19.27890   14.26413  -17.95425
       H   -17.73831   16.39211  -13.84761
       O   -17.89623   16.17562  -14.75279
      H1   -18.09108   16.96641  -15.29315
       H   -16.18342   17.78650  -18.82755
       O   -15.83767   17.52353  -17.95731
      H1   -16.32275   16.72650  -17.75370
       H   -15.35089   19.78557  -16.45172
       O   -14.62724   19.25599  -15.98883
      H1   -14.78187   18.33436  -16.15761
       H   -18.65072   19.61024  -12.12995
       O   -19.08127   18.96994  -12.68588
      H1   -19.61962   18.33064  -12.11938
       H   -15.98414   18.81113  -12.38385
       O   -16.48770   17.99291  -12.49785
      H1   -17.37523   18.44434  -12.53791
       H   -19.08266   12.32040  -16.31596
       O   -18.53695   12.66779  -17.00633
      H1   -18.19984   11.99440  -17.62519
       H   -18.44802   18.42890  -17.13540
       O   -17.98689   18.37498  -16.24666
      H1   -17.13785   18.26488  -16.60044
       H   -14.19393   12.95374  -17.09260
       O   -15.00525   12.52483  -16.73319
      H1   -15.59050   13.27548  -16.74152
       H   -15.89463   16.17364  -14.93662
       O   -15.16121   16.63228  -14.52292
      H1   -15.53749   17.24869  -13.87619
       H   -16.27561   14.67061  -18.37873
       O   -16.61098   14.88804  -17.45227
      H1   -17.25823   14.21124  -17.38474

