33
frame 5 | Written by MDAnalysis XYZWriter (release 2.4.3)
       H   -18.93403   11.09601    6.30202
       O   -19.34413   11.15127    7.19824
      H1   -19.15036   11.99227    7.61274
       H   -17.03827   17.69009    5.77177
       O   -17.22970   18.65586    5.90938
      H1   -17.28360   18.66265    6.90892
       H   -18.21987   19.80536    8.76591
       O   -17.43370   19.26315    8.51651
      H1   -17.57050   18.57911    9.13744
       H   -17.61510   16.52534    9.86335
       O   -18.32485   17.16636   10.03812
      H1   -18.91182   16.93425    9.32763
       H   -15.65296   16.34392    6.34077
       O   -16.38588   16.26161    5.73109
      H1   -16.10401   16.40619    4.79341
       H   -19.03289   13.81892    9.20306
       O   -18.84320   13.60996    8.25266
      H1   -19.18307   14.27926    7.68678
       H   -16.27827   13.67275    5.79307
       O   -15.42151   13.48407    6.19975
      H1   -15.28527   12.56502    6.02908
       H   -16.27986   14.58725    9.08835
       O   -16.27502   15.49575    9.34717
      H1   -15.94379   15.63497   10.26095
       H   -18.29440   15.81746    6.06961
       O   -19.20151   15.52692    6.09114
      H1   -19.58102   15.94868    6.85662
       H   -19.55799   13.19368   11.19934
       O   -19.56023   13.97994   10.65400
      H1   -18.99557   14.61254   11.16043
       H   -17.26655   13.27925    8.49698
       O   -16.39802   12.87757    8.61154
      H1   -15.97451   13.17714    7.74728

