33
frame 5 | Written by MDAnalysis XYZWriter (release 2.4.3)
       H    13.38159   -0.22338  -10.72813
       O    12.63609    0.32019  -10.42587
      H1    11.82605   -0.18583  -10.47381
       H    11.21506   -3.14123  -10.60088
       O    11.51931   -3.93258  -11.08982
      H1    11.53004   -3.54067  -11.93079
       H    12.24845   -1.50223  -13.63166
       O    12.01786   -2.41855  -13.53819
      H1    12.82256   -2.91053  -13.93342
       H     7.52565   -4.06037   -8.85915
       O     7.46621   -4.24231   -9.80907
      H1     7.49773   -3.35802  -10.19317
       H     9.09883   -0.09560  -14.72032
       O     8.89679    0.80143  -14.74052
      H1     9.08328    1.13273  -13.85731
       H    10.07991   -1.26386   -9.80861
       O    10.49636   -1.38724  -10.67609
      H1     9.74803   -1.55452  -11.25508
       H     8.76040   -0.42191   -8.16202
       O     8.99536   -1.32431   -8.41622
      H1     9.05412   -1.77221   -7.55786
       H    10.49926   -2.39962  -14.55107
       O     9.64015   -1.88960  -14.78728
      H1     8.99187   -2.60554  -15.00107
       H    11.66854    1.69484  -13.18521
       O    11.91154    0.75309  -13.01521
      H1    12.16578    0.74569  -12.05777
       H     7.43722   -0.93389  -11.11591
       O     7.48124   -1.86202  -11.44732
      H1     6.96095   -1.90775  -12.26017
       H    10.12585   -5.16174  -11.11291
       O     9.36963   -5.67791  -11.39616
      H1     8.66525   -5.28238  -10.80266

