33
frame 6 | Written by MDAnalysis XYZWriter (release 2.4.3)
       H     2.55365   10.37333   -1.78925
       O     2.47719    9.67279   -2.44343
      H1     2.65349    8.79704   -2.10247
       H    -2.72857    7.64498   -0.28372
       O    -3.38877    7.02991    0.04399
      H1    -3.63209    6.54129   -0.72373
       H     0.64428    7.48215    0.45503
       O     1.44531    7.05793    0.77207
      H1     2.03400    7.74977    1.14701
       H    -3.69694    8.38687    1.67898
       O    -4.03808    8.93547    2.42129
      H1    -4.43120    9.66884    1.97522
       H    -1.84716   11.21024   -1.25558
       O    -1.99516   11.23274   -2.24961
      H1    -2.90581   11.18440   -2.34549
       H    -0.73078    9.38866    2.95981
       O    -1.52819    9.94867    2.68625
      H1    -2.27222    9.41837    2.96212
       H    -0.80397   11.19836    0.94113
       O    -0.42902   11.50450    0.08094
      H1     0.06437   12.31274    0.27035
       H    -0.74004    9.35309    0.08217
       O    -0.85038    8.48763   -0.28661
      H1    -0.54099    8.58967   -1.21656
       H     1.52879    8.43727    3.17551
       O     0.73115    8.53769    3.73524
      H1     0.58496    7.63106    3.99998
       H     1.59732   12.22324   -2.35534
       O     0.80999   12.78092   -2.55648
      H1     0.07444   12.23783   -2.22331
       H     0.42125    9.64604   -3.09196
       O    -0.51715    9.35591   -3.16494
      H1    -1.01870   10.19667   -2.99430

