33
frame 6 | Written by MDAnalysis XYZWriter (release 2.4.3)
       H   -11.80483   -7.95168   16.98574
       O   -12.72833   -8.14949   17.05842
      H1   -12.94744   -7.78359   17.92086
       H   -10.29138  -10.31867   16.74607
       O   -11.02052  -10.37764   17.40631
      H1   -11.28044   -9.49208   17.56664
       H    -9.53261  -11.69597   19.77792
       O   -10.47513  -11.70538   19.50417
      H1   -10.56820  -11.16016   18.73885
       H   -13.43300  -10.73377   15.19006
       O   -12.91624  -11.39216   15.72401
      H1   -12.32389  -10.92608   16.34185
       H    -9.49990   -8.81021   15.95478
       O    -9.14060   -9.62522   15.69796
      H1    -8.95251   -9.56854   14.75830
       H   -15.04479   -8.43034   18.16792
       O   -15.83035   -8.92688   17.90888
      H1   -15.59807   -9.72838   17.45194
       H   -13.56310   -6.64812   16.55138
       O   -14.08932   -5.84275   16.42027
      H1   -15.03470   -6.14475   16.28331
       H   -16.51491   -7.58058   16.50353
       O   -16.69138   -6.73835   16.09556
      H1   -17.29411   -6.23334   16.62788
       H   -10.08622   -7.39671   18.15362
       O   -10.08051   -7.58492   17.22043
      H1    -9.83038   -6.74205   16.80839
       H   -13.82324   -5.47844   14.78120
       O   -13.56820   -5.18828   13.85951
      H1   -14.41757   -4.98413   13.40297
       H   -15.54870  -10.22931   13.46699
       O   -15.27975   -9.79065   14.27320
      H1   -14.93604   -9.00490   13.83305

