33
frame 7 | Written by MDAnalysis XYZWriter (release 2.4.3)
       H    -7.59425    1.30369   11.53721
       O    -6.98644    0.45669   11.52296
      H1    -6.28309    0.62430   12.16310
       H    -3.36327   -2.79702   11.18765
       O    -2.95473   -1.93133   11.25194
      H1    -2.48152   -1.97060   12.09331
       H    -4.26759   -5.53575   12.79027
       O    -4.24950   -5.17457   11.88616
      H1    -4.68791   -5.79736   11.27465
       H    -6.83770   -3.78681   10.84883
       O    -6.76340   -4.09305   11.73431
      H1    -5.82316   -4.41145   11.89257
       H    -0.96957   -0.84526   13.62816
       O    -1.84163   -1.17251   13.87287
      H1    -2.45973   -0.38427   13.85808
       H    -7.56723   -2.43646   18.28235
       O    -7.59714   -1.91870   17.50037
      H1    -6.73625   -1.91929   17.05928
       H    -6.01603   -1.13478   13.09503
       O    -5.63816   -1.98890   13.44270
      H1    -6.19850   -2.62349   12.94636
       H    -5.45108   -0.41895    9.38447
       O    -5.12573   -1.32375    9.55356
      H1    -4.74102   -1.29620   10.42055
       H    -8.67365   -0.25307   13.85649
       O    -8.73032    0.66329   14.01000
      H1    -9.63187    0.73231   14.45247
       H    -5.36476   -2.07593   15.33491
       O    -5.27062   -2.25335   16.29383
      H1    -4.57889   -1.59282   16.55140
       H    -4.76195    1.04078   14.24691
       O    -5.45393    0.95481   13.61312
      H1    -6.25947    1.39794   14.03833

