33
frame 7 | Written by MDAnalysis XYZWriter (release 2.4.3)
       H     8.62901  -15.57379   19.37848
       O     9.45600  -15.08464   19.45898
      H1     9.37937  -14.17531   19.00283
       H     5.67766  -15.98289   20.14545
       O     6.43769  -16.01037   19.52826
      H1     6.36154  -15.22313   18.97285
       H    10.45633  -10.21430   15.74355
       O    10.29187   -9.92979   16.67927
      H1    10.57948  -10.66269   17.24684
       H    10.01622  -12.07170   19.55514
       O    10.27431  -12.51927   18.75882
      H1    11.22411  -12.69802   18.86107
       H     6.60693  -11.72934   18.55498
       O     6.27366  -11.38341   17.70091
      H1     6.71330  -10.58115   17.52287
       H     3.66360   -9.98145   16.39386
       O     4.10010  -10.73430   16.00559
      H1     4.84817  -11.06106   16.59967
       H     3.46186   -9.43960   19.63698
       O     2.50924   -9.44353   19.53093
      H1     2.32935   -9.11768   18.68894
       H     3.04363  -13.79401   16.56064
       O     2.54291  -13.04159   16.23163
      H1     3.21554  -12.29131   16.31543
       H     7.48042   -8.29171   17.25526
       O     7.69071   -9.09010   16.79402
      H1     8.55953   -9.45121   17.02430
       H     6.49621  -13.43828   16.84735
       O     6.53365  -14.23680   17.42138
      H1     5.67776  -14.64887   17.39803
       H     7.58760  -10.33950   15.21542
       O     7.38601  -10.68145   14.34355
      H1     6.51956  -10.25039   14.18623

