33
frame 7 | Written by MDAnalysis XYZWriter (release 2.4.3)
       H    13.74893   -1.19501  -15.93270
       O    14.00668   -0.30693  -15.74248
      H1    15.01332   -0.43831  -15.69321
       H    13.15792   -5.94081  -19.30863
       O    13.58670   -6.41483  -18.56170
      H1    14.40357   -6.00328  -18.41016
       H    15.45974   -5.43210  -13.81887
       O    14.74581   -5.51662  -14.53773
      H1    13.86556   -5.79085  -14.07926
       H    13.02590   -1.85251  -18.23181
       O    12.75660   -1.71535  -19.15700
      H1    11.80750   -1.75886  -19.11994
       H    14.39500   -3.35595  -15.45494
       O    13.99869   -3.07375  -16.26435
      H1    14.67337   -3.49932  -16.86126
       H    16.66233   -5.04932  -17.59706
       O    16.05433   -4.30002  -17.73351
      H1    16.53619   -3.51189  -17.56278
       H    19.06191   -2.33513  -15.80862
       O    18.53522   -2.84216  -16.46730
      H1    18.32857   -2.14897  -17.13624
       H    17.66224   -0.06806  -18.41029
       O    17.74147   -1.02915  -18.60334
      H1    17.38400   -1.10418  -19.50524
       H    18.37551   -4.11676  -14.06872
       O    18.91193   -4.83523  -14.47806
      H1    18.54419   -5.64671  -14.12599
       H    16.50408   -7.51978  -16.26096
       O    16.12223   -7.72254  -15.39138
      H1    15.61633   -6.93069  -15.11818
       H    18.66877   -6.00816  -16.67989
       O    17.96222   -6.13449  -17.30937
      H1    18.50647   -6.55346  -18.04495

