33
frame 7 | Written by MDAnalysis XYZWriter (release 2.4.3)
       H   -15.70478    4.36503   -2.49459
       O   -15.02291    4.56250   -3.13031
      H1   -14.92353    5.53037   -3.04723
       H   -16.98367    0.24410    2.31088
       O   -16.73090    1.04570    2.76209
      H1   -17.41893    1.69575    2.61723
       H   -16.56757   -1.89765    1.83001
       O   -17.37066   -1.41884    1.76652
      H1   -17.61187   -1.51927    0.79901
       H   -15.33637    4.78413    1.23691
       O   -15.00307    4.63326    0.34507
      H1   -14.79273    3.69039    0.24016
       H   -18.61595    5.53666   -1.95280
       O   -17.68965    5.59837   -2.27337
      H1   -17.77257    5.53287   -3.23714
       H   -18.16741    4.64056    2.38649
       O   -18.07862    3.69535    2.57188
      H1   -17.55230    3.77774    3.34909
       H   -17.70502   -2.45586   -1.91667
       O   -18.18642   -1.68730   -1.72778
      H1   -18.26925   -1.16259   -2.49417
       H   -14.09541    0.10690   -2.02827
       O   -14.00846    0.04275   -1.10733
      H1   -14.52793    0.81556   -0.75777
       H   -14.57191    1.77539    0.92812
       O   -15.15198    1.98451    0.19748
      H1   -16.05519    1.94697    0.45844
       H   -18.96446    2.11844   -0.76014
       O   -19.31496    2.24722    0.13797
      H1   -18.88261    3.08408    0.46621
       H   -17.15894    2.81389   -4.23671
       O   -17.53749    2.29779   -3.50683
      H1   -16.95088    1.54172   -3.47907

