33
frame 7 | Written by MDAnalysis XYZWriter (release 2.4.3)
       H    -1.18059  -11.31973  -12.06586
       O    -0.47911  -10.66938  -11.98469
      H1    -0.35570  -10.28334  -12.85510
       H     0.92536   -6.97132  -10.94675
       O     0.95471   -6.22917  -10.33240
      H1     1.27201   -6.53962   -9.50034
       H    -4.90311  -10.13408  -12.84091
       O    -4.80776  -10.65222  -11.99607
      H1    -4.14223  -10.21141  -11.44596
       H    -2.56008  -12.71536   -9.90728
       O    -1.91559  -12.98639  -10.55920
      H1    -1.06541  -12.97427  -10.13893
       H     0.07721   -7.04977  -13.29502
       O     0.86567   -6.47963  -13.21869
      H1     1.51901   -6.90205  -13.81109
       H     0.54733  -11.69110  -10.35689
       O     0.69367  -12.44721   -9.75858
      H1     0.19762  -12.27549   -8.89165
       H    -2.66237  -13.44074  -13.69289
       O    -2.02207  -13.02981  -13.16508
      H1    -2.36330  -13.07703  -12.25884
       H     0.77154  -12.82444  -14.11979
       O     0.63060  -13.28467  -13.24162
      H1    -0.34694  -13.08486  -13.19677
       H    -2.07452   -7.39716  -12.23600
       O    -1.76250   -7.33126  -13.14627
      H1    -1.61834   -8.22493  -13.49189
       H     0.70627   -9.95471  -14.84724
       O     0.32114   -9.31915  -14.25259
      H1     0.38244   -8.48756  -14.79852
       H     1.91574  -12.24875  -12.79247
       O     2.50756  -11.48096  -12.60534
      H1     1.84586  -10.77974  -12.39243

