33
frame 6 | Written by MDAnalysis XYZWriter (release 2.4.3)
       H    -7.85093   13.14784   14.67109
       O    -8.04224   12.91783   15.64405
      H1    -8.69385   13.52664   15.85631
       H    -9.77782   14.54273   18.87332
       O   -10.20199   15.16332   18.24330
      H1   -10.19927   15.92148   18.87339
       H    -5.65303   15.57623   14.02643
       O    -6.32544   15.87689   14.59022
      H1    -7.07319   15.56081   14.05458
       H    -8.24711   17.03999   19.62384
       O    -7.35570   17.46612   19.54974
      H1    -7.20211   17.71800   18.63360
       H   -12.20831   18.63717   16.91139
       O   -12.62380   17.75317   16.74551
      H1   -12.03377   17.04112   16.86854
       H   -12.84973   16.43579   13.38235
       O   -12.79127   17.31735   12.99325
      H1   -12.89899   18.00599   13.63989
       H    -9.86475   16.00908   15.10116
       O   -10.06824   15.16372   15.59098
      H1   -10.14134   15.40086   16.52440
       H    -8.79239   17.50388   16.50091
       O    -9.52413   18.07138   16.16698
      H1    -9.10715   18.64776   15.45848
       H    -6.22639   15.09162   16.36197
       O    -5.47064   15.04645   16.97436
      H1    -4.68149   14.87758   16.45256
       H    -9.63118   18.76338   12.18616
       O    -9.65816   18.89345   13.19052
      H1   -10.53303   19.26393   13.52337
       H    -5.83331   17.28258   16.57723
       O    -6.42217   17.99408   16.94871
      H1    -5.80010   18.65997   17.40536

