33
frame 6 | Written by MDAnalysis XYZWriter (release 2.4.3)
       H    13.19352   -2.08606  -10.56217
       O    12.81141   -1.27987  -10.25429
      H1    11.96533   -1.22675  -10.76062
       H     9.48114   -0.63220  -17.82695
       O     9.90663    0.05501  -17.27935
      H1    10.17330   -0.35446  -16.44312
       H    10.36240   -5.09515  -16.05643
       O    11.06030   -4.55067  -16.48252
      H1    10.97602   -3.65222  -16.09240
       H    10.28607   -3.04322  -10.32528
       O    10.61595   -3.77665  -10.91566
      H1    10.96779   -3.32084  -11.75578
       H     9.83503    2.10015  -16.41558
       O     9.76745    2.55170  -15.52122
      H1     9.40983    1.84767  -14.93184
       H    14.71025   -2.55960  -14.71843
       O    14.42782   -2.92816  -15.56369
      H1    14.27608   -3.85295  -15.45329
       H    11.22319   -1.16476  -13.28496
       O    11.40080   -2.05027  -12.95642
      H1    12.31304   -2.19024  -12.92046
       H     8.95462   -1.21443  -14.62038
       O     8.42383   -0.41298  -14.42647
      H1     8.36170   -0.50865  -13.45370
       H     9.77543   -1.21936   -9.06108
       O     9.93776   -1.25214  -10.01655
      H1     9.06651   -0.97768  -10.35942
       H    10.39441   -2.63196  -14.35154
       O    10.15564   -2.37048  -15.28010
      H1     9.50440   -2.95151  -15.62342
       H    11.94396    1.33086  -13.57263
       O    11.22936    0.69044  -13.43111
      H1    10.56776    1.19243  -12.96288

