33
frame 6 | Written by MDAnalysis XYZWriter (release 2.4.3)
       H     6.90001  -17.86961   14.88801
       O     6.98164  -16.89521   14.90629
      H1     6.11097  -16.54748   14.51510
       H     5.03107  -13.66320   12.41856
       O     5.73217  -14.04793   12.92192
      H1     6.20417  -14.59636   12.29650
       H     6.91455  -17.53641   11.92112
       O     7.38853  -16.76892   12.22603
      H1     7.28320  -16.65092   13.17761
       H     3.67816  -19.92310   16.12494
       O     4.19110  -19.23066   15.65679
      H1     4.58009  -18.64779   16.31665
       H     7.95779  -15.98405   16.14482
       O     8.44849  -15.20508   16.41348
      H1     7.86320  -14.52549   16.79918
       H     2.72140  -17.93925   12.39362
       O     3.66056  -17.97589   12.26475
      H1     3.86271  -17.48630   11.48279
       H     6.15754  -12.81024   17.42617
       O     6.15948  -13.74282   17.16944
      H1     5.23404  -14.02088   17.01884
       H     3.20630  -15.74486   17.08302
       O     3.88630  -15.16361   16.75764
      H1     4.01806  -15.38152   15.82190
       H     2.64622  -13.00346   12.00772
       O     3.62568  -13.06221   11.95544
      H1     3.86240  -13.42598   11.09448
       H     6.27800  -19.30725   13.14475
       O     6.02747  -19.37190   12.22630
      H1     5.17625  -18.87895   12.26933
       H     4.79777  -15.09478   14.03543
       O     4.64230  -16.01517   14.19971
      H1     4.06176  -16.24568   13.44107

