33
frame 6 | Written by MDAnalysis XYZWriter (release 2.4.3)
       H    17.06875   15.04224   -4.42627
       O    16.30429   15.56046   -4.69255
      H1    15.86617   14.92717   -5.26179
       H    17.46961   11.22975   -2.69401
       O    16.92189   10.67181   -3.33362
      H1    15.97141   10.71700   -3.12368
       H    15.79634   13.11879    1.53350
       O    16.25199   13.29012    0.69144
      H1    15.49439   13.13498    0.04335
       H    17.75405   11.59771   -5.69986
       O    17.54592   10.90348   -6.30847
      H1    16.59727   10.76004   -6.16727
       H    19.00577   10.87967   -0.49742
       O    19.02045    9.94678   -0.31979
      H1    18.35811    9.55143   -1.01335
       H    18.20397   13.28590   -1.93923
       O    17.95999   12.52995   -1.44212
      H1    17.45624   12.65427   -0.61647
       H    17.82328    9.24882   -3.14141
       O    18.28624    8.37392   -2.98737
      H1    18.08902    7.83201   -3.71780
       H    13.32804   10.49511   -2.62956
       O    14.26706   10.24031   -2.50523
      H1    14.14938    9.52202   -1.81758
       H    15.32961    7.56930   -4.22027
       O    14.41618    7.99320   -4.31609
      H1    14.30323    8.70384   -3.70870
       H    13.63482   12.93869   -1.47036
       O    14.21957   12.32685   -0.97328
      H1    14.37424   11.48092   -1.52382
       H    19.51099   13.43049   -4.17313
       O    18.96680   14.13488   -3.89560
      H1    19.55393   14.90936   -3.88353

