33
frame 6 | Written by MDAnalysis XYZWriter (release 2.4.3)
       H   -17.85259   -2.88230  -12.18687
       O   -17.69136   -2.20719  -12.88908
      H1   -17.35652   -2.62533  -13.68529
       H   -13.72768   -0.01474  -15.94831
       O   -14.63603    0.06781  -16.22361
      H1   -14.86956    0.90538  -15.77314
       H   -15.99328   -2.52513  -12.54101
       O   -15.10946   -2.85036  -12.26860
      H1   -15.15726   -3.85198  -12.16827
       H   -13.28787   -2.01353  -13.08426
       O   -12.39278   -2.17145  -13.40936
      H1   -12.09901   -1.42783  -13.94482
       H   -11.53005   -5.00864  -13.27712
       O   -10.62994   -4.96869  -12.85394
      H1   -10.42622   -5.90276  -12.68534
       H   -14.43852   -5.43429  -16.94290
       O   -14.36549   -6.34158  -16.52719
      H1   -13.38422   -6.55220  -16.39672
       H   -16.66032   -3.89461  -15.60672
       O   -16.66125   -2.97841  -15.96706
      H1   -16.14887   -3.13140  -16.78286
       H   -14.83524   -3.11538  -15.97197
       O   -13.91986   -3.36328  -15.67678
      H1   -13.82686   -3.02527  -14.76629
       H   -11.11012   -1.75454  -17.97777
       O   -11.26354   -2.06965  -17.07969
      H1   -12.07309   -2.56386  -17.06511
       H   -11.53147   -0.72109  -15.96360
       O   -11.79272   -0.06757  -15.31065
      H1   -11.20890    0.66495  -15.43571
       H   -14.30173   -6.10510  -12.78077
       O   -14.47392   -5.51263  -12.07678
      H1   -13.65825   -5.37359  -11.56805

