33
frame 6 | Written by MDAnalysis XYZWriter (release 2.4.3)
       H    -6.06329   -4.70885   18.00121
       O    -6.45751   -4.88324   18.88084
      H1    -5.78195   -4.91266   19.53768
       H   -10.33238   -2.96128   16.30286
       O   -11.11845   -3.41133   16.81957
      H1   -11.68852   -3.79385   16.16952
       H    -9.49990   -8.81021   15.95478
       O    -9.14060   -9.62522   15.69796
      H1    -8.95251   -9.56854   14.75830
       H    -8.77013   -4.63856   18.90246
       O    -9.69341   -4.52884   19.21107
      H1   -10.19847   -4.29330   18.43827
       H    -6.42682   -7.87018   15.30025
       O    -6.33819   -7.17074   14.62482
      H1    -6.89718   -7.46214   13.88212
       H    -6.51299   -7.04383   18.89261
       O    -6.83371   -7.94011   19.09497
      H1    -6.89120   -8.34295   18.26056
       H    -6.64934   -1.64931   14.12651
       O    -6.33203   -2.53879   14.28492
      H1    -6.83981   -3.15599   13.81082
       H    -8.96406   -6.65065   11.35016
       O    -9.27593   -6.60206   12.30016
      H1    -8.71567   -5.89062   12.68465
       H    -8.49024   -1.82882   16.26767
       O    -8.91445   -2.37329   15.64654
      H1    -8.56233   -1.91334   14.89568
       H    -8.35525   -4.75344   15.65734
       O    -7.90914   -5.48650   16.17537
      H1    -7.27946   -5.82536   15.56223
       H   -10.08622   -7.39671   18.15362
       O   -10.08051   -7.58492   17.22043
      H1    -9.83038   -6.74205   16.80839

