33
frame 6 | Written by MDAnalysis XYZWriter (release 2.4.3)
       H    -2.00413   -5.23044   -5.82638
       O    -2.85566   -4.92330   -6.18602
      H1    -2.51425   -4.31614   -6.80478
       H    -1.14410   -6.34950  -10.67785
       O    -1.83041   -6.17945  -10.05424
      H1    -2.61527   -5.90549  -10.59320
       H    -7.31153   -5.62572   -7.57160
       O    -7.93281   -6.17450   -7.05796
      H1    -7.25661   -6.68459   -6.50931
       H    -7.40395   -9.16190  -10.20376
       O    -7.61808   -8.37808   -9.67843
      H1    -6.77719   -7.97621   -9.48939
       H    -5.78993   -7.20692   -5.11411
       O    -6.40855   -7.68359   -5.70585
      H1    -6.53713   -8.59154   -5.39335
       H    -4.72283   -6.49759   -9.92819
       O    -4.93372   -7.30925   -9.42787
      H1    -4.42614   -7.24284   -8.58115
       H    -4.19323   -4.35116  -10.98727
       O    -4.16494   -5.32448  -10.88541
      H1    -4.15997   -5.48334  -11.83691
       H    -4.72186   -7.54845   -6.65464
       O    -3.81795   -7.49382   -6.99062
      H1    -3.42765   -6.67975   -6.60809
       H    -2.13634   -8.10392  -10.12309
       O    -2.76300   -8.85736  -10.03864
      H1    -3.60745   -8.44233   -9.83224
       H    -2.96620  -10.35026   -5.18588
       O    -2.29491   -9.81505   -5.63269
      H1    -2.82381   -9.29694   -6.21545
       H    -4.85517   -5.18312   -7.10812
       O    -5.51470   -4.67426   -7.58318
      H1    -5.59732   -5.14223   -8.41976

