33
frame 7 | Written by MDAnalysis XYZWriter (release 2.4.3)
       H    13.89632   -7.42556    3.67547
       O    13.79050   -6.83007    4.41586
      H1    14.62290   -6.75300    4.85931
       H    18.50816   -9.86414   -0.77987
       O    18.23410   -9.34468   -0.01024
      H1    17.39431   -9.79501    0.28537
       H    18.44762  -12.14309    4.35856
       O    17.78701  -11.59588    4.76652
      H1    17.82588  -10.75740    4.24963
       H    15.01350  -12.74934    5.73935
       O    15.35677  -12.82410    4.88116
      H1    16.28311  -12.45977    4.86128
       H    15.25347  -10.54435    1.30544
       O    15.85634   -9.76888    1.08802
      H1    16.21788   -9.41182    1.93934
       H    17.76610   -8.16158    3.16378
       O    17.14442   -8.89105    3.42399
      H1    16.52914   -8.36644    3.89541
       H    19.83675  -10.26893    7.11104
       O    18.85669  -10.36287    6.98060
      H1    18.83004  -10.89063    6.21929
       H    19.33523   -6.41220    2.16568
       O    18.79658   -6.49831    2.96780
      H1    18.42350   -5.60010    3.09296
       H    18.66286   -8.56600    6.96823
       O    18.54371   -7.62652    7.06550
      H1    19.38848   -7.21596    6.75919
       H    13.42039   -9.13544    1.55620
       O    13.20312   -9.08572    2.49917
      H1    12.44067   -9.58409    2.69920
       H    15.49776   -8.01223    7.20872
       O    15.95891   -7.64932    6.38845
      H1    16.88975   -7.46555    6.53795

