33
frame 8 | Written by MDAnalysis XYZWriter (release 2.4.3)
       H    -3.66345    4.37638   12.45404
       O    -3.08795    3.76184   11.98169
      H1    -3.33645    2.91373   12.36366
       H    -1.36021    3.25029   14.03932
       O    -1.47869    3.30097   15.01043
      H1    -0.62248    3.05600   15.40864
       H    -3.96300    3.08313   17.50799
       O    -3.26993    3.80909   17.45883
      H1    -2.93636    3.74411   16.56314
       H    -1.77607   -0.22185   12.19592
       O    -2.22430   -0.53440   12.96560
      H1    -2.18228    0.10830   13.67708
       H     0.52557    1.26295   16.35568
       O     0.61559    2.22187   16.58869
      H1     0.17894    2.39185   17.42906
       H    -0.23992   -3.31534   14.07403
       O    -1.07548   -3.12111   13.52095
      H1    -1.14646   -2.17571   13.48815
       H     0.24601   -0.48135   14.43766
       O     0.06853   -0.41917   15.37798
      H1     0.65210   -0.97544   15.87209
       H    -4.60291    0.21893   18.38798
       O    -4.35019   -0.67827   18.62647
      H1    -3.43459   -0.68147   18.45884
       H    -2.16266    1.66374   15.28855
       O    -2.43105    0.74387   15.30215
      H1    -1.73852    0.25717   15.71058
       H    -5.63753    1.86856   18.59911
       O    -5.11574    1.85165   17.78430
      H1    -5.74776    1.67750   17.10873
       H    -4.14663    1.40333   14.08943
       O    -4.70436    1.98287   13.57248
      H1    -5.48767    2.21584   14.16177

