33
frame 7 | Written by MDAnalysis XYZWriter (release 2.4.3)
       H    -3.36327   -2.79702   11.18765
       O    -2.95473   -1.93133   11.25194
      H1    -2.48152   -1.97060   12.09331
       H    -0.96957   -0.84526   13.62816
       O    -1.84163   -1.17251   13.87287
      H1    -2.45973   -0.38427   13.85808
       H    -0.43392   -3.54227   14.29507
       O    -1.36729   -3.85567   14.06428
      H1    -1.93017   -3.06144   13.96694
       H    -1.68515   -4.25214   10.83696
       O    -0.88804   -4.57968   11.23213
      H1    -1.13198   -4.68693   12.15143
       H     1.62541   -0.03119   14.38066
       O     0.98009   -0.05889   15.10467
      H1     1.33957   -0.61198   15.82372
       H    -2.08329   -1.07331    9.97338
       O    -1.23022   -0.89910    9.53714
      H1    -1.23294   -1.65756    8.87825
       H    -6.01603   -1.13478   13.09503
       O    -5.63816   -1.98890   13.44270
      H1    -6.19850   -2.62349   12.94636
       H    -0.02554   -2.81642   11.87416
       O     0.37303   -1.92929   11.79538
      H1    -0.17999   -1.62739   11.07223
       H    -5.36476   -2.07593   15.33491
       O    -5.27062   -2.25335   16.29383
      H1    -4.57889   -1.59282   16.55140
       H    -2.11447    1.66305   14.23594
       O    -2.94015    1.26334   14.54753
      H1    -2.83769    1.12607   15.44806
       H    -4.76195    1.04078   14.24691
       O    -5.45393    0.95481   13.61312
      H1    -6.25947    1.39794   14.03833

