33
frame 8 | Written by MDAnalysis XYZWriter (release 2.4.3)
       H   -15.52327   15.47608  -11.88832
       O   -16.33253   15.86439  -12.25266
      H1   -16.46216   16.75187  -11.93051
       H    -9.71161   17.46707   -9.84992
       O   -10.19511   17.62984  -10.71701
      H1    -9.55986   17.60014  -11.43573
       H    -9.02765   16.60716   -7.37401
       O    -9.76819   16.77006   -7.99809
      H1   -10.54234   17.04570   -7.41332
       H   -13.34298   18.04136  -10.16087
       O   -13.63025   17.17664  -10.45595
      H1   -12.85328   16.57757  -10.65815
       H   -16.00655   19.01315  -11.67830
       O   -16.83613   18.52139  -11.52182
      H1   -17.62648   18.97401  -11.81406
       H   -12.90752   17.36564   -6.58115
       O   -11.97270   17.43887   -6.40613
      H1   -11.77475   17.00276   -5.55557
       H   -16.58628   18.24104   -9.78785
       O   -16.60447   18.65289   -8.92546
      H1   -16.59439   19.64403   -9.13190
       H   -12.75244   13.71252   -8.25250
       O   -12.24093   14.04458   -7.48360
      H1   -11.90021   14.91561   -7.71313
       H   -14.99480   17.54821   -7.97896
       O   -14.32423   16.97473   -7.55750
      H1   -13.96100   16.47845   -8.24441
       H   -11.72596   14.86524  -11.80694
       O   -11.73460   15.33423  -10.96127
      H1   -11.18513   16.08505  -11.16524
       H   -15.07232   17.03404  -15.45005
       O   -14.42357   17.40447  -14.81708
      H1   -14.64638   17.04290  -13.93930

