33
frame 7 | Written by MDAnalysis XYZWriter (release 2.4.3)
       H   -17.42764   -6.56527   14.04803
       O   -17.94504   -6.15807   13.39447
      H1   -17.93210   -6.78320   12.65566
       H   -18.57623   -3.01223   15.43943
       O   -18.78114   -3.82295   15.93871
      H1   -18.53902   -3.62435   16.82343
       H   -18.66207   -5.31601   18.34682
       O   -18.64026   -4.44030   18.74120
      H1   -18.47318   -4.54343   19.65363
       H   -19.28442   -2.48753   19.09607
       O   -19.20989   -1.51909   19.04322
      H1   -19.95841   -1.26599   19.60160
       H   -16.08412   -8.04465   17.86285
       O   -16.45090   -8.63922   17.17884
      H1   -15.84559   -9.39125   17.11275
       H   -13.74736   -6.70938   16.40309
       O   -14.09295   -5.85462   16.02920
      H1   -15.02097   -5.98704   15.81459
       H   -16.86200   -7.24010   16.13445
       O   -16.80312   -6.29853   15.81084
      H1   -17.68946   -5.97986   15.90925
       H   -18.70220   -8.66568   19.22686
       O   -17.86562   -9.08936   19.59935
      H1   -17.14886   -9.03892   18.95212
       H   -15.13740   -3.19034   17.02306
       O   -15.22808   -2.94823   16.05278
      H1   -15.69252   -2.09207   15.98161
       H   -15.15670   -6.53793   19.87489
       O   -15.22938   -6.75288   18.93943
      H1   -15.03891   -5.91653   18.54612
       H   -13.58085   -4.20412   17.85534
       O   -14.24542   -3.84975   18.44390
      H1   -13.83668   -3.01371   18.70857

