33
frame 7 | Written by MDAnalysis XYZWriter (release 2.4.3)
       H   -11.27210   10.03551    3.59003
       O   -12.20783   10.38415    3.64574
      H1   -12.31151   10.99331    2.83990
       H   -13.10960    9.10765   -0.46096
       O   -12.49898    8.51919   -0.92868
      H1   -12.18231    7.76275   -0.37416
       H   -14.90639    8.40138   -3.19316
       O   -14.68817    7.58670   -2.69925
      H1   -14.00463    7.80348   -2.06253
       H   -12.24557   12.61052    1.05949
       O   -12.95439   12.41618    1.73030
      H1   -13.49616   11.71390    1.33275
       H   -15.08603   12.96253   -2.20101
       O   -14.44392   12.24388   -2.17026
      H1   -14.80337   11.59094   -1.54499
       H   -14.37274    9.51500    1.36629
       O   -14.37447   10.31905    0.85425
      H1   -15.29827   10.45447    0.55414
       H   -11.10476   13.60787   -0.86287
       O   -11.63473   12.81750   -0.74536
      H1   -12.50175   13.11235   -1.02710
       H   -13.75511    6.98373    2.10117
       O   -14.43282    7.67820    1.93273
      H1   -15.07884    7.29879    1.28867
       H   -14.78007    8.94418    5.03024
       O   -14.37134    9.78472    5.34430
      H1   -13.76589    9.90623    4.61703
       H   -17.27651   10.24749   -0.67472
       O   -16.91880   10.69880    0.05551
      H1   -17.63305   11.29626    0.40797
       H   -16.19579    6.16091   -0.20213
       O   -16.41573    6.99511    0.19049
      H1   -16.46681    7.59610   -0.55153

