33
frame 8 | Written by MDAnalysis XYZWriter (release 2.4.3)
       H     1.67453    9.57995    5.60391
       O     2.49918    9.77465    6.08532
      H1     2.29348   10.58634    6.54995
       H     3.74602   12.07974    6.95433
       O     2.84761   12.16990    7.36128
      H1     3.00308   11.93558    8.28378
       H    -0.63671   10.76504    9.13405
       O    -0.45627   11.74079    9.17133
      H1    -0.97087   12.10503    8.46353
       H     1.14437   14.30228    6.13476
       O     1.31567   14.59471    7.09463
      H1     1.95867   13.86211    7.27843
       H     5.57422   13.76869   10.61934
       O     5.30017   12.84268   10.84163
      H1     4.46711   12.74354   10.31845
       H     1.35548    8.30369    9.32882
       O     0.88616    8.84666    9.98748
      H1     1.63719    9.09194   10.61480
       H     1.05842   12.06851   12.24107
       O     0.29123   12.54586   11.90469
      H1     0.09388   12.29054   10.95055
       H     5.47949   12.68087    5.72258
       O     5.43914   12.73069    6.69010
      H1     6.20428   12.09320    6.88204
       H     5.22546   14.42998    6.62812
       O     5.33290   15.36126    6.77509
      H1     4.44678   15.75994    6.89134
       H     3.15424    7.53346    8.83157
       O     2.62814    7.66133    8.00514
      H1     2.72319    8.50063    7.56657
       H     1.87368   11.65644    9.80690
       O     2.81060   11.58923    9.83586
      H1     3.12609   10.91756   10.43139

