33
frame 7 | Written by MDAnalysis XYZWriter (release 2.4.3)
       H    16.85038   -1.99344   13.55967
       O    16.63688   -2.37910   14.40886
      H1    17.12185   -1.81317   15.08799
       H    16.20563   -2.55451   18.54096
       O    16.54368   -1.73684   18.15133
      H1    15.75866   -1.12842   18.22397
       H    18.44193    0.37486   16.02361
       O    18.10873   -0.52284   15.93654
      H1    17.77349   -0.76058   16.76664
       H    13.45452   -1.94096   13.34708
       O    13.36508   -0.95790   13.43614
      H1    12.69619   -0.73653   12.78776
       H    16.10012    0.39714   15.07994
       O    15.18881    0.68553   15.32851
      H1    14.59640    0.25334   14.68005
       H    17.24295   -0.19107   12.21078
       O    17.22835   -1.11509   12.20835
      H1    17.53924   -1.51231   11.35974
       H    18.99927   -4.37547   15.10151
       O    18.14301   -4.73098   14.88325
      H1    17.53956   -3.94799   14.79264
       H    14.50272   -6.92745   12.67436
       O    14.93916   -6.11445   12.40278
      H1    14.70236   -5.46001   13.07282
       H    11.78698   -0.92654   16.11009
       O    12.53636   -1.51808   16.07802
      H1    12.89914   -1.28634   15.22900
       H    16.21646   -5.99659   16.72093
       O    16.98170   -5.52997   17.14712
      H1    17.37429   -5.06547   16.41167
       H    13.97906   -3.73391   14.37824
       O    14.31691   -3.40769   13.51142
      H1    15.15248   -2.97807   13.76890

