33
frame 7 | Written by MDAnalysis XYZWriter (release 2.4.3)
       H   -11.49823    7.23925   -4.81830
       O   -10.61684    6.99734   -4.79642
      H1   -10.43070    7.05699   -3.85429
       H   -13.16753    2.66713   -6.87932
       O   -12.85839    2.21823   -6.04189
      H1   -11.98063    1.90254   -6.39983
       H   -10.43682    4.57422   -7.05545
       O   -10.26077    5.03436   -7.86108
      H1    -9.93175    4.31160   -8.45835
       H   -14.50435    8.60492   -9.66622
       O   -13.78802    8.89866  -10.19628
      H1   -14.04497    9.78985  -10.53545
       H   -10.54373    9.50284   -9.46800
       O   -10.87368    8.65782   -9.93404
      H1   -11.81086    8.91090  -10.14944
       H   -12.33976    5.13832  -11.19736
       O   -12.09457    4.56346  -11.92119
      H1   -12.95446    4.28160  -12.31828
       H   -14.93963    7.17932   -8.13104
       O   -15.69309    7.63928   -8.45206
      H1   -16.26715    6.94586   -8.85100
       H   -13.30896    6.80071   -6.67557
       O   -13.62946    6.23015   -7.42004
      H1   -12.93868    6.36344   -8.10146
       H   -13.85840    3.24883   -8.83875
       O   -14.29768    3.60814   -8.02643
      H1   -13.87507    4.47478   -7.92450
       H   -11.65763    6.99381   -9.51595
       O   -12.01485    6.09057   -9.55645
      H1   -11.43722    5.62433   -8.91097
       H   -13.21536    8.67087   -5.78943
       O   -13.17421    7.78303   -5.34950
      H1   -13.62382    7.83841   -4.47935

