33
frame 7 | Written by MDAnalysis XYZWriter (release 2.4.3)
       H    18.28033    4.81479    6.26189
       O    17.91566    3.95287    6.64447
      H1    17.03059    4.28493    7.01290
       H    15.54512    3.40337    8.24049
       O    15.30059    3.98005    7.50424
      H1    15.14613    4.89412    7.78280
       H    14.35936    3.03852    4.86420
       O    15.23640    2.69785    4.91783
      H1    15.59794    3.03271    5.70647
       H    15.55799   -1.17155    8.37912
       O    16.17082   -1.04446    9.06869
      H1    17.05951   -1.13769    8.68915
       H    15.49558    1.95568    3.26280
       O    15.67138    1.82486    2.33727
      H1    15.65845    0.91654    2.01558
       H    16.77897   -1.92127    5.39166
       O    17.06784   -2.71693    4.94344
      H1    17.50053   -3.37833    5.51754
       H    13.42972   -0.56526    7.96905
       O    13.66988   -1.16364    7.23409
      H1    14.39878   -0.79523    6.71997
       H    16.45672    1.21128    9.31269
       O    16.00595    2.03850    9.17535
      H1    15.10997    1.76001    8.94350
       H    18.50352    0.19385    6.92978
       O    17.90754    0.93408    7.15861
      H1    18.06515    1.68238    6.58137
       H    13.91372   -1.37254    3.84965
       O    14.18626   -0.46109    3.72715
      H1    13.35107    0.04652    3.65280
       H    16.57153    0.36055    6.24707
       O    15.94155   -0.18788    5.79333
      H1    15.57630    0.33489    5.04334

