33
frame 0 | Written by MDAnalysis XYZWriter (release 2.4.3)
       H     2.31061  -19.43333   -3.20163
       O     3.04862  -19.10596   -2.70387
      H1     2.69437  -19.01030   -1.83564
       H    -0.63418  -17.53922    0.63641
       O     0.30987  -17.60853    0.64851
      H1     0.60724  -16.94289    0.00814
       H    -1.48477  -18.58577   -7.23125
       O    -0.93312  -19.33831   -7.61807
      H1    -1.49718  -20.06022   -7.38934
       H    -3.69625  -16.98675   -3.48896
       O    -2.80342  -16.67462   -3.72808
      H1    -2.57688  -17.05540   -4.62237
       H     0.97173  -19.38684   -4.91721
       O     0.85137  -19.88537   -4.04452
      H1     0.22186  -19.33722   -3.56932
       H    -2.97850  -17.14512   -6.87035
       O    -2.08457  -17.26019   -6.35644
      H1    -1.65922  -16.37388   -6.49574
       H     3.49621  -17.30884   -2.94046
       O     3.29464  -16.38231   -2.66066
      H1     4.02780  -15.73629   -2.98599
       H     0.73040  -19.04166   -6.89481
       O     1.61507  -18.99500   -6.54186
      H1     2.04324  -18.14838   -6.76662
       H     1.79883  -16.05071   -1.64620
       O     1.11980  -15.68013   -1.11851
      H1     1.34917  -14.95318   -0.56461
       H    -1.18672  -17.53852   -2.72048
       O    -0.52719  -18.17280   -2.41128
      H1    -1.01501  -18.67439   -1.67261
       H     2.11914  -15.22062   -3.68554
       O     1.74438  -14.57429   -4.33181
      H1     1.25420  -13.91175   -3.91144

