33
frame 8 | Written by MDAnalysis XYZWriter (release 2.4.3)
       H    12.43083   -2.47656   -0.44819
       O    12.98970   -2.09589   -1.13101
      H1    13.48990   -2.84403   -1.55686
       H    15.28012   -1.23982   -3.78883
       O    15.85865   -0.92646   -3.07475
      H1    15.28063   -0.28272   -2.54761
       H    13.24729   -4.00713    3.68443
       O    13.58024   -3.27938    4.28708
      H1    14.54101   -3.35459    4.21808
       H    14.57747    0.49475   -0.58531
       O    14.42690    0.78891   -1.48553
      H1    14.56487    1.73821   -1.60966
       H    14.45666    3.09135    3.82279
       O    14.90308    2.57014    3.09573
      H1    14.51603    1.70928    3.06775
       H    11.84317   -2.86303    1.75736
       O    11.19090   -2.73252    1.00664
      H1    10.71818   -3.59408    1.08337
       H    17.63196   -2.90513    0.07556
       O    16.71572   -3.11084    0.05772
      H1    16.46662   -3.18196   -0.89214
       H    13.35186   -1.57046    3.91443
       O    13.51083   -0.77354    3.40408
      H1    13.01285   -0.03257    3.73479
       H    16.55129   -6.30397    0.86667
       O    15.99780   -5.57865    1.16906
      H1    16.27066   -4.79317    0.68373
       H    15.34197   -1.32346    0.95761
       O    15.04898   -0.40752    1.26069
      H1    14.47533   -0.58003    2.06238
       H    16.62946   -0.25588    5.62480
       O    16.06215   -0.98928    5.40497
      H1    15.52127   -0.66623    4.67179

