33
frame 8 | Written by MDAnalysis XYZWriter (release 2.4.3)
       H   -15.52327   15.47608  -11.88832
       O   -16.33253   15.86439  -12.25266
      H1   -16.46216   16.75187  -11.93051
       H   -16.33225   18.72434   -6.19841
       O   -16.13089   19.63705   -5.91563
      H1   -16.90909   20.18190   -6.30221
       H   -17.68310   14.32058   -9.41985
       O   -17.25719   13.79160   -8.76377
      H1   -17.44561   14.12626   -7.80003
       H   -13.34298   18.04136  -10.16087
       O   -13.63025   17.17664  -10.45595
      H1   -12.85328   16.57757  -10.65815
       H   -16.00655   19.01315  -11.67830
       O   -16.83613   18.52139  -11.52182
      H1   -17.62648   18.97401  -11.81406
       H   -19.07271   17.00962   -5.41694
       O   -18.34252   17.00715   -6.06954
      H1   -17.86304   16.21520   -5.89011
       H   -16.58628   18.24104   -9.78785
       O   -16.60447   18.65289   -8.92546
      H1   -16.59439   19.64403   -9.13190
       H   -18.33098   17.99551   -8.72774
       O   -19.26461   17.72005   -8.52880
      H1   -19.21221   17.42211   -7.58195
       H   -14.99480   17.54821   -7.97896
       O   -14.32423   16.97473   -7.55750
      H1   -13.96100   16.47845   -8.24441
       H   -18.62031   15.10715  -12.70618
       O   -19.45191   15.26310  -12.27119
      H1   -20.13191   15.11858  -12.99473
       H   -15.07232   17.03404  -15.45005
       O   -14.42357   17.40447  -14.81708
      H1   -14.64638   17.04290  -13.93930

