33
frame 8 | Written by MDAnalysis XYZWriter (release 2.4.3)
       H     3.93486   -2.43416   12.77800
       O     4.63357   -2.50424   12.10396
      H1     4.31972   -2.01704   11.33185
       H     7.56493   -3.35124   12.34992
       O     7.56007   -3.41185   11.38593
      H1     6.97820   -4.18173   11.26545
       H     4.39591   -4.23435    8.08053
       O     5.06709   -4.36808    8.76743
      H1     4.57556   -4.72273    9.56141
       H     2.95342   -0.35137   10.87709
       O     3.56538   -0.86001   10.35075
      H1     4.40121   -0.34389   10.29190
       H     2.70571   -0.90193   13.67888
       O     3.23265   -1.54629   14.20116
      H1     3.93691   -1.14434   14.70109
       H     8.23574   -1.32827    9.62460
       O     7.87896   -0.93472   10.43802
      H1     7.47813   -1.73435   10.80548
       H     6.49047    0.00774   10.21392
       O     5.65563    0.55204   10.03562
      H1     5.66571    1.31787   10.60484
       H     4.23353   -4.32291   11.51404
       O     4.28453   -5.25673   11.22756
      H1     5.19054   -5.53559   11.33482
       H     2.79387   -0.74741    6.88074
       O     2.35377   -1.44335    7.37945
      H1     2.71024   -1.41312    8.29340
       H     5.71996   -1.41733   12.76315
       O     6.36701   -0.87210   13.24603
      H1     6.16934   -1.16997   14.11746
       H     0.77900   -1.05157   12.18030
       O     1.22788   -0.36060   12.68120
      H1     0.94411    0.53762   12.53143

