33
frame 9 | Written by MDAnalysis XYZWriter (release 2.4.3)
       H   -12.63433   -5.46654  -11.68389
       O   -12.13660   -5.50066  -10.82522
      H1   -12.22582   -4.61963  -10.42662
       H   -10.70039   -8.24714   -6.19217
       O   -11.16081   -7.62669   -5.60212
      H1   -11.55840   -7.04456   -6.23604
       H    -7.37986   -6.77099   -9.76152
       O    -8.03521   -7.49328   -9.90630
      H1    -8.63533   -7.08848  -10.52759
       H    -8.97348   -5.39260   -6.19044
       O    -8.11062   -4.99525   -5.98555
      H1    -7.47283   -5.20010   -6.70219
       H    -9.79887   -6.75950  -12.81699
       O    -9.49931   -6.60792  -11.87469
      H1   -10.30515   -6.40351  -11.34106
       H    -9.57998   -5.68467   -8.55084
       O    -9.95280   -6.04565   -7.75407
      H1    -9.91774   -7.04492   -7.87525
       H   -10.65948   -8.95152   -8.69081
       O   -10.20517   -9.03589   -7.79543
      H1    -9.26926   -9.11519   -7.97299
       H    -5.80712   -5.30789   -8.42443
       O    -6.05424   -5.27674   -7.45671
      H1    -5.56492   -6.00985   -7.03373
       H   -11.66320   -3.29704   -8.44707
       O   -12.23650   -3.17345   -9.24161
      H1   -13.09232   -3.42103   -8.90765
       H    -8.62905   -3.31446   -6.32347
       O    -9.23345   -2.57215   -6.26964
      H1    -9.04039   -2.04221   -7.01048
       H   -11.67577   -4.97972   -6.43034
       O   -11.60958   -4.16968   -5.87761
      H1   -10.68169   -3.85410   -5.93143

