33
frame 9 | Written by MDAnalysis XYZWriter (release 2.4.3)
       H   -13.13031  -13.07554  -18.39625
       O   -13.98674  -13.06044  -18.90902
      H1   -14.39370  -12.22515  -18.54906
       H   -11.48319  -14.58533  -17.61248
       O   -11.97972  -13.83476  -17.25333
      H1   -11.30578  -13.24730  -16.95231
       H   -11.49040   -9.82338  -13.40959
       O   -11.86040  -10.29239  -14.19408
      H1   -11.09670  -10.64448  -14.72879
       H   -14.42130  -10.36261  -17.20241
       O   -15.15675  -10.87048  -17.58981
      H1   -15.82289  -10.81658  -16.94736
       H   -10.32075   -9.71290  -18.78210
       O    -9.74504   -8.93852  -18.61635
      H1    -8.77234   -9.29610  -18.57047
       H   -10.06156  -12.36957  -15.30250
       O   -10.38659  -11.80686  -16.01423
      H1    -9.54170  -11.60486  -16.39754
       H   -11.84341   -8.10806  -16.58178
       O   -11.30704   -7.43663  -16.92941
      H1   -10.53387   -7.87979  -17.39889
       H   -12.38681  -10.80245  -19.54468
       O   -11.67977  -11.00331  -18.94942
      H1   -11.32755  -11.86986  -19.23247
       H   -14.18354   -5.64881  -17.70248
       O   -14.19800   -6.56284  -17.52585
      H1   -13.26938   -6.77504  -17.81450
       H    -7.02338  -12.95810  -18.35131
       O    -7.54237  -12.23184  -18.03756
      H1    -7.54389  -11.49725  -18.66742
       H   -12.13968  -10.46951  -17.15729
       O   -12.78641  -10.08316  -16.63129
      H1   -12.46650  -10.04973  -15.74324

