33
frame 8 | Written by MDAnalysis XYZWriter (release 2.4.3)
       H    14.84892    6.91680   -6.67467
       O    13.89441    7.06375   -6.52053
      H1    13.81909    7.94472   -6.09685
       H    11.25910    5.99603   -7.05809
       O    10.77423    5.61734   -6.26656
      H1    11.36593    5.45686   -5.53445
       H    13.68763    8.02463   -8.02114
       O    13.87520    8.34334   -8.91674
      H1    13.25318    9.00855   -9.19429
       H    10.39033    8.27164   -9.69516
       O    10.42163    8.36510  -10.63475
      H1    11.03792    7.67544  -10.89353
       H    10.25261    8.91293   -6.95913
       O    10.02404    9.05367   -7.88760
      H1     9.18471    8.59023   -8.10496
       H    11.76884    4.85613   -3.36457
       O    12.39124    4.69960   -4.11807
      H1    13.13162    5.32808   -3.92045
       H     7.85359    6.86168   -6.13997
       O     8.13321    6.05977   -6.66200
      H1     9.09073    6.09403   -6.49339
       H     7.81141    7.17689   -7.96416
       O     7.70306    7.85688   -8.67259
      H1     6.77922    8.14107   -8.46299
       H    11.07434    2.32599   -5.62572
       O    10.13486    2.69222   -5.75889
      H1    10.36485    3.63375   -5.98581
       H    12.64676    6.63253   -9.16307
       O    12.00159    5.89847   -9.26345
      H1    12.53944    5.23192   -9.64748
       H    10.77017    7.81575   -5.08460
       O    11.04527    8.68935   -5.49549
      H1    10.50026    9.29770   -4.89649

