33
frame 9 | Written by MDAnalysis XYZWriter (release 2.4.3)
       H    -3.34916   17.13771  -12.70616
       O    -3.48444   17.94173  -13.18050
      H1    -2.93192   17.86499  -13.98055
       H    -4.94070   18.85551  -13.38726
       O    -5.53065   19.42910  -13.93561
      H1    -6.23702   19.63853  -13.35172
       H    -1.85233   18.58665   -6.18601
       O    -1.01363   18.27667   -5.82431
      H1    -0.29678   18.37888   -6.48609
       H    -0.74839   19.01868  -10.71632
       O    -0.68085   18.79358   -9.78900
      H1    -1.59322   18.68273   -9.51624
       H    -6.43381   15.21977  -11.91713
       O    -6.68489   15.47285  -11.01175
      H1    -5.84893   15.60747  -10.53205
       H    -4.96297   15.66665   -8.87318
       O    -4.11816   15.63848   -9.47954
      H1    -3.89811   16.58780   -9.47088
       H    -2.10027   18.86580  -12.62227
       O    -1.43624   19.50642  -12.35330
      H1    -1.98301   20.22016  -11.99611
       H    -3.73486   19.60249   -6.15074
       O    -3.85142   18.69201   -6.48865
      H1    -4.06522   18.27021   -5.64559
       H    -2.18001   15.17881  -12.78465
       O    -2.65643   15.72872  -12.12405
      H1    -2.02369   15.74964  -11.33463
       H    -0.14829   15.22825  -10.08616
       O    -0.57793   15.97232  -10.52012
      H1    -0.42054   16.74709   -9.96192
       H    -3.66971   18.97497   -9.71304
       O    -3.21373   18.32764   -9.14979
      H1    -3.59694   18.48705   -8.25089

