33
frame 9 | Written by MDAnalysis XYZWriter (release 2.4.3)
       H    12.33343   -8.26533   -9.21727
       O    12.43276   -7.94862   -8.31279
      H1    13.26198   -8.37886   -8.03410
       H     9.13407  -10.50885   -4.11929
       O     9.55383  -11.37150   -4.20071
      H1    10.02213  -11.38330   -5.03073
       H    14.60168  -12.78554   -8.86718
       O    14.88322  -12.31171   -8.10637
      H1    15.78460  -12.02096   -8.51224
       H    12.38506  -10.73857   -5.08318
       O    12.45641  -11.46927   -5.74334
      H1    12.07113  -11.01817   -6.51046
       H     8.81868  -12.20464   -8.37916
       O     9.76794  -12.33469   -8.37367
      H1    10.04799  -12.50974   -9.26006
       H    12.01187   -9.87502   -3.43003
       O    12.48179   -9.29407   -4.00574
      H1    13.30778   -9.11257   -3.48574
       H    14.52829  -10.51015   -8.26047
       O    14.83558   -9.56199   -8.31951
      H1    15.28664   -9.46437   -7.48074
       H     9.61278   -8.66626   -7.36516
       O     9.11917   -7.94062   -7.73293
      H1     9.79354   -7.50435   -8.22755
       H    13.45622  -12.95752   -4.42938
       O    13.48035  -13.84662   -4.06011
      H1    14.33278  -13.87446   -3.57722
       H    11.45477   -9.73295   -8.21883
       O    10.89432  -10.12627   -7.56392
      H1    10.44380  -10.93281   -7.99977
       H    12.22924  -12.46987   -2.96621
       O    11.62659  -11.80870   -2.61646
      H1    10.83777  -11.81451   -3.20185

