33
frame 9 | Written by MDAnalysis XYZWriter (release 2.4.3)
       H   -17.61963  -13.81170   -9.21841
       O   -17.15702  -14.13959  -10.01812
      H1   -16.54443  -14.82927   -9.81921
       H   -14.33140  -11.41074  -12.40837
       O   -14.90087  -11.21688  -11.71301
      H1   -15.42112  -12.06091  -11.57409
       H   -19.89135   -7.53748  -11.43679
       O   -19.23581   -6.91171  -11.78123
      H1   -19.73479   -6.52084  -12.52026
       H   -18.43736   -7.90738   -9.64105
       O   -18.58690   -7.77481   -8.67520
      H1   -18.05673   -7.04889   -8.31981
       H   -18.74303  -12.07342   -8.09623
       O   -18.80409  -13.00229   -8.23346
      H1   -19.66789  -13.30938   -7.84831
       H   -14.98853   -8.03345   -9.74999
       O   -15.88103   -8.06871  -10.15738
      H1   -16.16746   -8.97441  -10.39421
       H   -19.17744  -13.57549  -13.17676
       O   -18.49416  -12.93404  -13.37452
      H1   -17.71231  -13.23710  -12.82898
       H   -19.89389  -15.79500  -10.77580
       O   -18.99233  -16.10748  -10.92560
      H1   -18.43040  -15.35077  -10.71680
       H   -16.97897  -11.89748  -14.64256
       O   -17.05919  -11.21432  -15.30233
      H1   -17.98776  -11.26485  -15.45488
       H   -17.86074   -9.24374   -7.99654
       O   -17.73070  -10.19672   -7.80860
      H1   -16.77377  -10.31729   -7.90922
       H   -19.42046  -12.33292  -10.61678
       O   -19.53655  -11.67742  -11.29743
      H1   -18.99221  -11.95882  -12.07964

