33
frame 8 | Written by MDAnalysis XYZWriter (release 2.4.3)
       H     3.21286   16.46192  -14.56462
       O     3.58283   17.13983  -15.12629
      H1     3.91441   16.89222  -15.95750
       H     7.18653   17.34412  -17.50766
       O     6.45279   17.84073  -17.86170
      H1     6.78866   18.29196  -18.59552
       H     6.62543   16.28568  -12.30811
       O     6.25569   16.65152  -13.12721
      H1     6.74523   17.48783  -13.26613
       H     1.78335   15.23220  -13.46628
       O     2.74524   15.28314  -13.36627
      H1     3.11358   14.69502  -14.06565
       H     5.13013   15.86189  -14.97702
       O     5.46729   15.02659  -15.27076
      H1     4.79521   14.68342  -15.80315
       H     5.69078   14.20019  -13.15165
       O     5.43931   13.32866  -12.79525
      H1     5.46349   13.33396  -11.83610
       H     8.85498   16.18987  -15.54947
       O     8.12582   16.08268  -16.20939
      H1     7.45663   15.66769  -15.73821
       H     6.11619   12.98697  -16.94556
       O     6.16308   13.40681  -17.82303
      H1     7.11630   13.48846  -17.95114
       H     2.80396   12.93785  -16.50795
       O     3.33499   13.23258  -15.74630
      H1     4.04602   12.58133  -15.56750
       H     3.18967   17.76891  -18.17864
       O     3.71747   17.00294  -17.87666
      H1     4.66553   17.16225  -17.99868
       H     5.11168   12.10005  -14.08790
       O     5.28179   11.47840  -14.81869
      H1     5.34190   10.58638  -14.52566

