33
frame 8 | Written by MDAnalysis XYZWriter (release 2.4.3)
       H   -16.06432    5.03578    7.12766
       O   -15.75236    4.20239    6.78596
      H1   -14.77446    4.22387    6.90369
       H   -16.78767    1.18649    5.61754
       O   -16.32394    0.68530    4.89018
      H1   -16.72648    1.02349    4.09819
       H   -16.73804    2.82713    7.23732
       O   -17.11041    1.90217    7.27332
      H1   -18.00473    2.00015    7.64927
       H   -19.34711    7.27240    1.81010
       O   -18.60239    6.77181    2.19817
      H1   -17.79699    7.03626    1.72995
       H   -17.74451    0.39018    2.32652
       O   -17.35171    1.29708    2.35974
      H1   -17.94715    2.00897    2.16361
       H   -16.25385    5.42557    3.93513
       O   -16.75032    4.67095    4.20150
      H1   -16.31915    4.31186    5.01303
       H   -18.22438    7.25065    4.04187
       O   -18.20896    7.91068    4.77938
      H1   -17.25776    8.03486    4.85766
       H   -18.59676    4.82292    1.79531
       O   -18.47875    3.87301    1.99160
      H1   -18.12715    3.99302    2.90382
       H   -12.97168    5.18644    3.86488
       O   -13.08307    5.42129    4.81691
      H1   -13.23152    4.58315    5.20620
       H   -14.40568    6.75287    4.84960
       O   -15.19348    7.31563    4.76257
      H1   -15.04451    7.77469    3.93399
       H   -14.29305    1.98987    1.39935
       O   -15.09014    2.58012    1.38800
      H1   -15.84004    2.05392    1.67818

