33
frame 9 | Written by MDAnalysis XYZWriter (release 2.4.3)
       H    18.08668   18.18506  -16.53352
       O    18.72431   17.62144  -17.07862
      H1    18.68841   17.93839  -17.96806
       H    12.92700   12.80723  -16.31428
       O    13.74226   13.30984  -16.40832
      H1    14.31117   13.07930  -15.67603
       H    17.24324   15.95280  -16.40700
       O    17.16691   15.44739  -15.51609
      H1    16.70655   14.62669  -15.65058
       H    16.63397   16.42838  -14.31130
       O    16.41914   17.15915  -13.73931
      H1    15.60047   17.55045  -14.16194
       H    18.62785   14.68609  -14.53152
       O    19.25413   13.97696  -14.32279
      H1    18.69757   13.19029  -14.19897
       H    18.50812   18.93610  -11.70301
       O    17.70723   18.82477  -12.18002
      H1    17.75009   18.09604  -12.73117
       H    16.49353   12.01549  -15.61577
       O    16.22848   12.82241  -15.13073
      H1    16.27249   12.46675  -14.24402
       H    12.99572   15.05899  -16.01346
       O    12.44916   15.86524  -15.95247
      H1    12.29776   16.18942  -16.88789
       H    17.18103   18.74198  -14.42366
       O    17.54086   19.31828  -15.09406
      H1    18.39288   19.66313  -14.76657
       H    14.30908   18.67488  -15.55938
       O    14.30891   17.76849  -15.12448
      H1    13.70148   17.24847  -15.65349
       H    15.77996   15.25782  -19.00359
       O    16.54377   15.38451  -18.40667
      H1    16.86383   14.45610  -18.27510

