33
frame 8 | Written by MDAnalysis XYZWriter (release 2.4.3)
       H     8.39355   18.78377   14.10170
       O     8.65309   18.08062   13.46545
      H1     8.60962   17.26687   14.02141
       H    12.27324   18.70621   15.88314
       O    12.74945   18.21856   15.21946
      H1    13.37760   17.67222   15.72721
       H    15.16850   18.16265   19.40094
       O    14.57355   17.37355   19.22097
      H1    13.68623   17.72108   18.89389
       H    10.56695   17.62650   11.75748
       O    10.83485   16.96033   11.14021
      H1    11.84046   17.05269   11.02139
       H    11.35074   14.17926   15.40096
       O    11.53089   13.27733   15.72055
      H1    12.03715   12.83379   15.04869
       H    12.15954   19.22276   18.37252
       O    12.16598   18.22705   18.39454
      H1    11.23552   17.83846   18.39776
       H    16.59285   17.11935   15.67621
       O    16.82574   16.87148   16.58284
      H1    16.07293   16.49169   17.01268
       H    15.26032   15.54829   12.99937
       O    14.30026   15.39741   12.99439
      H1    14.14506   14.49436   12.67624
       H    13.80155   16.54039   11.73265
       O    13.52522   17.25290   11.15214
      H1    14.15373   17.28420   10.43699
       H    13.90578   15.54492   15.04267
       O    14.01196   15.94169   15.91605
      H1    13.37943   15.64136   16.54203
       H    10.37799   16.36432   15.10268
       O    11.15878   15.74403   14.92746
      H1    11.84827   16.40426   14.72099

