33
frame 9 | Written by MDAnalysis XYZWriter (release 2.4.3)
       H   -11.75080   13.83582   15.22175
       O   -11.89626   12.84829   15.11625
      H1   -11.06361   12.37778   15.31233
       H    -8.39650   16.00074    8.48758
       O    -8.59340   15.60593    7.60947
      H1    -8.92506   16.36023    7.11218
       H    -5.72035   15.71888   12.64480
       O    -6.03644   15.82020   13.55377
      H1    -6.68290   15.08362   13.69748
       H   -10.24347   16.13486   12.80175
       O    -9.86999   15.34176   12.42985
      H1   -10.62054   14.71267   12.40036
       H    -8.90990   14.79269   13.86760
       O    -8.25151   14.14203   14.19493
      H1    -8.43813   13.42232   13.64715
       H   -13.21488   14.82229   12.69222
       O   -14.03105   15.29302   12.73489
      H1   -14.41230   15.17826   13.65517
       H   -10.64551   16.23744   15.52721
       O   -11.34681   15.59766   15.56978
      H1   -12.05837   16.13774   15.97742
       H   -11.88555   12.76386   13.11629
       O   -11.83279   13.32569   12.32052
      H1   -11.74777   12.75100   11.56556
       H    -8.23113   17.52523   15.18495
       O    -9.18085   17.40204   14.97463
      H1    -9.49645   17.86159   14.16672
       H   -10.11217   18.96443   12.17263
       O   -10.55211   18.30121   12.77089
      H1   -11.44140   18.69531   12.88868
       H    -7.04024   16.09348   10.53821
       O    -7.94348   16.00621   10.24135
      H1    -8.55724   15.88101   10.99805

