33
frame 8 | Written by MDAnalysis XYZWriter (release 2.4.3)
       H     2.65189   16.25299   15.67991
       O     2.46126   16.46463   16.63386
      H1     3.08658   16.04132   17.18481
       H     6.68443   18.59086   15.58920
       O     6.21948   19.26028   15.04159
      H1     5.33101   19.44110   15.43790
       H    -0.15935   15.09236   18.84323
       O    -0.07395   15.55536   18.02090
      H1     0.85722   15.72060   17.90684
       H     3.72546   14.31226   19.21554
       O     3.43210   15.19702   19.11327
      H1     3.21575   15.56929   19.96107
       H    -0.85239   14.36433   16.65450
       O    -1.27681   13.57717   16.18162
      H1    -1.84421   13.24608   16.88787
       H     0.65116   17.38254   13.61183
       O    -0.11870   17.89040   13.86814
      H1    -0.78161   17.19595   13.94777
       H     0.54575   18.59559   15.62408
       O     1.31047   18.75362   16.26904
      H1     1.73337   17.84846   16.39873
       H    -0.96258   18.80856   17.47932
       O    -1.21453   18.21052   18.13234
      H1    -0.67459   17.43260   18.01186
       H     6.24585   16.72720   19.63080
       O     5.59477   16.80574   18.93052
      H1     4.94124   16.08045   19.04490
       H    -2.63427   17.14454   16.98061
       O    -3.23351   17.23202   16.23905
      H1    -3.33727   16.34514   15.82927
       H     3.02256   16.99107   13.23969
       O     2.62192   16.27794   13.74781
      H1     2.09562   15.79301   13.10706

