33
frame 9 | Written by MDAnalysis XYZWriter (release 2.4.3)
       H    -9.61234   -2.27103    2.08423
       O    -8.73077   -1.93231    2.27885
      H1    -8.83270   -0.98554    2.57188
       H    -4.25275   -2.98694   -2.04405
       O    -3.71529   -3.54289   -2.60933
      H1    -3.05382   -2.92749   -3.06238
       H    -6.51924   -0.84366    4.19321
       O    -6.58353   -1.76457    3.93840
      H1    -7.25447   -1.81366    3.21752
       H    -4.61549   -1.31369   -0.70919
       O    -4.78450   -2.12432   -0.24046
      H1    -5.76418   -2.09876   -0.13979
       H    -3.83383   -5.42779   -1.09201
       O    -4.76208   -5.69132   -0.93765
      H1    -5.33815   -4.97408   -1.28378
       H    -6.50810   -0.40299   -3.69521
       O    -6.15781    0.47462   -3.85881
      H1    -5.59785    0.49860   -4.67498
       H    -7.60013   -2.79384   -0.53628
       O    -7.48391   -1.79227   -0.37841
      H1    -7.99356   -1.72929    0.41492
       H    -7.72902   -4.85425   -1.92414
       O    -7.42719   -4.55317   -1.06223
      H1    -7.84641   -5.07384   -0.38350
       H    -4.13130   -2.45664    3.16295
       O    -3.78635   -2.81875    2.41643
      H1    -4.31999   -2.49509    1.68285
       H   -10.00680   -0.87598   -0.67608
       O   -10.10870   -0.08832   -0.11999
      H1    -9.26905    0.41647   -0.15527
       H    -4.73023   -5.28044    0.65607
       O    -4.87537   -5.17682    1.63570
      H1    -4.36556   -4.35786    1.91837

