33
frame 9 | Written by MDAnalysis XYZWriter (release 2.4.3)
       H    12.92700   12.80723  -16.31428
       O    13.74226   13.30984  -16.40832
      H1    14.31117   13.07930  -15.67603
       H    16.63397   16.42838  -14.31130
       O    16.41914   17.15915  -13.73931
      H1    15.60047   17.55045  -14.16194
       H    13.22892   16.77183  -11.70838
       O    13.60478   16.72528  -10.80039
      H1    14.10170   15.94917  -10.71678
       H     8.94058   17.13368  -12.59549
       O     9.28885   16.54076  -13.27663
      H1     8.91242   15.67012  -13.08542
       H     8.36826   16.60787  -14.58576
       O     7.66062   16.60429  -15.32204
      H1     6.84418   16.21238  -15.09719
       H    10.51609   15.69860  -16.28472
       O     9.89553   15.63386  -17.02152
      H1     9.05021   15.87941  -16.54909
       H    12.99572   15.05899  -16.01346
       O    12.44916   15.86524  -15.95247
      H1    12.29776   16.18942  -16.88789
       H    12.20606   16.51514  -14.03579
       O    12.12391   16.47288  -13.10628
      H1    11.13712   16.38286  -13.05613
       H    10.57932   19.41196  -14.68859
       O    11.24200   19.42252  -13.98013
      H1    12.06499   19.22645  -14.41152
       H    11.59675   13.76984  -11.70823
       O    12.39519   14.22435  -11.91076
      H1    12.21371   15.00284  -12.43077
       H    14.30908   18.67488  -15.55938
       O    14.30891   17.76849  -15.12448
      H1    13.70148   17.24847  -15.65349

