33
frame 10 | Written by MDAnalysis XYZWriter (release 2.4.3)
       H     3.32927   14.80008   -5.25236
       O     4.14767   15.20777   -4.92386
      H1     4.60290   15.56618   -5.69265
       H     2.49222   18.29691   -3.10958
       O     2.40409   18.30934   -2.09232
      H1     1.81465   19.02036   -1.86079
       H     6.27449   19.63081   -4.62165
       O     6.07825   18.71988   -4.29821
      H1     5.88146   18.86626   -3.34161
       H     4.35090   16.55772   -7.77938
       O     5.06772   16.07131   -7.44109
      H1     5.67957   16.82952   -7.10133
       H     5.19202   17.66672   -1.22771
       O     4.92199   18.47404   -1.69695
      H1     3.95673   18.34995   -1.76204
       H     7.85395   17.16029   -2.45003
       O     7.88807   16.63357   -3.19205
      H1     7.42580   17.14209   -3.86078
       H    10.34337   17.63638   -1.94411
       O    10.39843   18.63912   -2.14661
      H1     9.59117   18.96446   -1.76278
       H     3.26564   17.27227   -4.96644
       O     3.30567   18.14049   -4.60644
      H1     4.17937   18.55670   -4.61758
       H     8.05724   18.95379    0.13799
       O     7.62321   18.44936   -0.59008
      H1     7.77667   19.05684   -1.33793
       H     7.05964   18.70026   -7.62942
       O     7.05270   18.22242   -6.80278
      H1     6.79218   18.75447   -6.02893
       H    10.20586   17.75513   -6.43271
       O     9.70339   17.65823   -7.24508
      H1     8.76166   17.77309   -6.93412

