33
frame 10 | Written by MDAnalysis XYZWriter (release 2.4.3)
       H    16.83524  -18.19336  -14.37039
       O    16.63800  -17.34868  -13.96634
      H1    16.07799  -17.50985  -13.19806
       H    15.12506  -12.63173  -15.76190
       O    14.62227  -13.44056  -15.45644
      H1    15.08117  -14.14814  -15.88683
       H    18.50189  -13.27989  -15.59766
       O    18.50297  -13.72444  -14.72266
      H1    19.28003  -13.37280  -14.29175
       H    19.06218  -18.33447  -11.90749
       O    19.62216  -19.06352  -11.49171
      H1    19.04489  -19.61487  -10.98652
       H    14.38781  -16.43634  -16.14690
       O    15.35887  -16.31916  -16.17936
      H1    15.71060  -16.57589  -15.30079
       H    13.90276  -17.46538  -11.92118
       O    14.79101  -17.06434  -11.98408
      H1    14.57397  -16.17251  -12.33089
       H    17.07108  -16.71178  -17.40870
       O    17.82944  -16.60703  -17.97056
      H1    18.48892  -16.34961  -17.27042
       H    15.51974  -16.37733   -9.84965
       O    16.45048  -16.17540   -9.75389
      H1    16.85355  -17.03895   -9.46523
       H    19.55477  -16.77037  -15.54956
       O    19.54450  -15.87784  -15.90433
      H1    19.07333  -15.23948  -15.31247
       H    15.69328  -14.27644  -12.31099
       O    14.79158  -14.29573  -12.59287
      H1    14.86451  -14.12882  -13.55549
       H    16.95372  -15.73098  -11.45415
       O    17.35363  -15.38408  -12.25446
      H1    17.33126  -16.12599  -12.93672

