33
frame 10 | Written by MDAnalysis XYZWriter (release 2.4.3)
       H    14.27511   -7.86987    4.04253
       O    13.49752   -7.59097    3.67813
      H1    13.77352   -7.03574    2.92077
       H    13.52901   -3.54999   -1.42341
       O    13.32689   -2.60407   -1.30983
      H1    12.82260   -2.51400   -0.50806
       H    12.71539   -6.30654   -0.92815
       O    13.24928   -5.48264   -0.87349
      H1    13.73803   -5.56999   -0.07771
       H    11.54047   -4.60691    2.24462
       O    11.84357   -4.45925    3.13585
      H1    12.58083   -4.95265    3.43019
       H    14.89418   -8.64237   -1.47614
       O    15.73711   -8.48395   -1.99086
      H1    16.04510   -7.69910   -1.51129
       H    11.77291   -8.10457   -1.03294
       O    11.32535   -7.23568   -0.90998
      H1    11.13470   -7.00867   -1.82452
       H    16.18793   -3.86685    2.71619
       O    15.85051   -3.62930    1.84375
      H1    16.60200   -3.77211    1.21095
       H    11.44892   -4.88366   -0.10939
       O    10.85827   -4.61180    0.60928
      H1    10.10186   -5.24577    0.64774
       H    15.26266   -6.22090    1.00033
       O    14.48620   -5.80570    1.53446
      H1    14.89900   -4.93998    1.79712
       H    14.06627   -5.70691   -2.74843
       O    14.11287   -5.56503   -3.74416
      H1    13.27842   -5.13586   -3.91341
       H    17.10184   -6.02026    0.43283
       O    16.60141   -6.81233    0.22143
      H1    17.08415   -7.50656    0.75766

