33
frame 10 | Written by MDAnalysis XYZWriter (release 2.4.3)
       H    18.16777    4.37735    6.84067
       O    17.76863    3.44938    6.74838
      H1    16.91174    3.68856    7.06089
       H    15.00557    2.97749    2.19233
       O    15.33887    3.65673    1.56994
      H1    16.03877    3.29056    0.99898
       H    18.23487    5.97966    3.19933
       O    18.72940    6.24261    2.42588
      H1    19.15365    5.47669    2.04508
       H    13.57311    4.80023    5.34478
       O    13.34332    3.91710    5.60040
      H1    13.81693    3.89301    6.46208
       H    16.80808    2.00010   -0.83583
       O    17.06980    2.89504   -0.68363
      H1    18.00572    2.90531   -0.70135
       H    13.91413    2.52132    4.45307
       O    14.35173    2.02837    3.75891
      H1    13.95225    1.11153    3.79387
       H    16.58015    8.35768    4.71469
       O    15.77591    8.50011    4.20200
      H1    15.28793    7.72687    4.42181
       H    17.39086   -0.79775    5.23582
       O    16.82339   -0.51287    4.46528
      H1    16.88383    0.40158    4.16595
       H    17.09274    3.51222    3.16206
       O    17.83689    3.65520    3.82208
      H1    17.45330    3.40303    4.67130
       H    13.95026    4.98037   -1.07832
       O    13.76543    5.12958   -0.17563
      H1    14.45186    4.63363    0.31468
       H    18.27128    6.94419    0.75856
       O    18.18077    7.59473   -0.02018
      H1    18.50607    7.08599   -0.72219

