33
frame 0 | Written by MDAnalysis XYZWriter (release 2.4.3)
       H    13.42944  -12.61604    4.32844
       O    12.68761  -12.47121    3.67834
      H1    12.26242  -13.26709    3.73700
       H    11.03987  -15.60562    4.35287
       O    11.91609  -15.24847    4.64610
      H1    12.47956  -16.01656    4.68562
       H     9.14969   -9.56768    5.41566
       O     8.25996   -9.66045    5.11975
      H1     8.46732   -9.87410    4.19754
       H     9.78502  -14.11124    6.40175
       O    10.33280  -14.62194    7.04531
      H1    11.10794  -14.80720    6.51875
       H     8.49399  -15.82206    3.32587
       O     9.21644  -15.89331    3.97166
      H1     9.02603  -16.71922    4.47190
       H     5.43536  -12.24736    1.97462
       O     5.45103  -13.06861    2.42506
      H1     4.91291  -13.75421    1.99045
       H     6.50106  -14.98989    2.80744
       O     6.83921  -15.79212    2.40807
      H1     6.82035  -15.48483    1.44696
       H     9.85423  -10.56945    1.98645
       O     9.73776  -10.46644    2.92444
      H1    10.63744  -10.18060    3.19934
       H     8.12199  -12.23389    5.31485
       O     8.36652  -13.19995    5.34865
      H1     8.77076  -13.32552    4.47908
       H     9.73325  -12.46992    2.70667
       O     9.44539  -13.37539    2.51186
      H1     8.59818  -13.20503    2.06272
       H     6.88112  -13.69685    6.22756
       O     6.15933  -14.12735    6.70126
      H1     6.18047  -15.05782    6.52981

