33
frame 9 | Written by MDAnalysis XYZWriter (release 2.4.3)
       H   -18.38992   12.07441   -8.18478
       O   -18.48802   11.14850   -8.61531
      H1   -19.34710   11.11852   -8.95552
       H   -14.68388   12.20490   -9.73596
       O   -14.96867   12.16388   -8.85003
      H1   -15.52223   12.95922   -8.70401
       H   -19.07081   16.79008  -10.94329
       O   -19.52526   17.56815  -10.61520
      H1   -19.06559   17.76538   -9.74361
       H   -18.00902   14.32174   -8.58111
       O   -17.32658   13.77290   -8.06197
      H1   -17.20089   14.20329   -7.17379
       H   -19.81808   14.16113   -9.83029
       O   -19.73993   14.60493   -8.98134
      H1   -19.47523   15.53906   -9.12885
       H   -18.45466   17.14266   -4.43555
       O   -17.62092   17.40514   -4.89024
      H1   -17.24012   16.60027   -5.18388
       H   -17.51822   18.45071   -7.86710
       O   -18.19566   17.85471   -8.23975
      H1   -18.90513   17.68020   -7.61461
       H   -15.31251   17.72149   -7.14259
       O   -15.07061   16.85020   -6.77696
      H1   -15.62287   16.33209   -7.30387
       H   -17.84998   15.55573  -11.82038
       O   -18.60290   15.07416  -11.52106
      H1   -19.08209   14.85324  -12.36709
       H   -17.45142   10.59063   -9.84908
       O   -16.90073   10.43269  -10.61256
      H1   -17.53888   10.69692  -11.31191
       H   -15.84095   14.59621   -5.79400
       O   -16.76577   14.67583   -5.75283
      H1   -17.14878   14.06645   -5.08886

