33
frame 10 | Written by MDAnalysis XYZWriter (release 2.4.3)
       H   -11.62670   -2.19621   -9.94302
       O   -11.06260   -1.36736   -9.92067
      H1   -10.97185   -1.23566  -10.85036
       H   -15.30973   -2.20371  -16.35991
       O   -14.69457   -1.48375  -16.14210
      H1   -15.25881   -0.94616  -15.56476
       H   -13.36114    1.40442  -10.64924
       O   -12.85622    2.22252  -10.64361
      H1   -12.94742    2.61421   -9.77156
       H   -13.13667   -1.42536  -15.11140
       O   -12.34936   -1.40950  -14.55569
      H1   -12.49544   -0.63010  -13.99955
       H   -15.43533   -0.81559  -18.92206
       O   -14.48939   -1.02000  -18.78340
      H1   -14.41181   -1.02094  -17.75915
       H   -10.55864   -3.00836  -13.90077
       O    -9.88706   -3.59913  -14.21352
      H1    -9.99683   -3.62434  -15.13292
       H    -9.30866    2.05143  -15.01198
       O    -8.49011    1.56050  -14.95978
      H1    -8.69893    0.72285  -15.32806
       H   -10.88742    1.03989  -11.92920
       O   -11.47914    0.31072  -12.21961
      H1   -12.25094    0.74649  -12.62414
       H   -10.24771   -1.37977  -17.26343
       O   -10.13192   -0.94427  -16.40147
      H1   -10.95068   -1.22227  -15.93376
       H   -11.72193    2.08996  -16.96322
       O   -10.83131    1.72413  -16.94514
      H1   -10.79009    0.76632  -16.93270
       H   -14.69449    0.91947  -13.17472
       O   -13.79206    1.19783  -13.39032
      H1   -13.70582    2.20839  -13.37958

