33
frame 10 | Written by MDAnalysis XYZWriter (release 2.4.3)
       H   -10.03515   13.69790   17.12519
       O    -9.35808   13.15689   17.41223
      H1    -9.58735   12.84165   18.30467
       H   -11.40743   14.82952   15.06959
       O   -11.76458   14.30605   14.30202
      H1   -11.14288   13.55464   14.10864
       H   -11.42143   15.17538   18.79212
       O   -12.25395   14.71042   18.82667
      H1   -12.47268   14.35170   17.96778
       H   -12.85158   12.81696   16.89257
       O   -13.23784   12.96687   16.00775
      H1   -12.58152   13.35819   15.37460
       H    -9.50778   18.49412   18.17578
       O    -9.15333   17.90856   18.87226
      H1    -8.56982   17.32895   18.39266
       H   -11.61996   18.42061   17.22633
       O   -12.30473   17.78911   17.61982
      H1   -12.02649   17.74229   18.54718
       H   -16.26302   17.22620   17.02643
       O   -16.63660   16.96707   16.21915
      H1   -16.55790   17.74311   15.58444
       H   -10.17316   16.38240   16.30467
       O   -10.90599   15.72266   16.39146
      H1   -11.60141   16.27691   16.80999
       H   -14.01719   14.76561   19.50453
       O   -15.02850   14.74691   19.73692
      H1   -15.03557   15.71234   19.84987
       H    -8.35879   17.58227   14.94561
       O    -9.30269   17.77262   15.00613
      H1    -9.61609   18.10538   14.13123
       H    -8.24170   15.12960   16.82153
       O    -7.79561   15.94241   17.13844
      H1    -7.31971   16.36385   16.40509

