33
frame 10 | Written by MDAnalysis XYZWriter (release 2.4.3)
       H    -5.84650   -9.18513  -18.07591
       O    -6.40274   -9.75727  -18.56067
      H1    -6.47479   -9.34160  -19.41404
       H    -4.38089  -13.53614  -14.52236
       O    -4.27394  -13.14767  -13.61646
      H1    -4.38691  -13.82304  -12.94280
       H    -1.95856  -10.12669  -13.14038
       O    -1.37844   -9.49396  -13.60250
      H1    -1.56452   -9.62221  -14.52511
       H    -7.16159  -12.81353  -16.14352
       O    -6.84415  -12.14238  -15.49918
      H1    -7.07802  -12.41476  -14.62434
       H    -6.08958  -12.72451  -13.27043
       O    -6.94863  -12.70516  -12.92342
      H1    -7.25667  -11.87872  -12.61299
       H    -4.27004  -15.18233  -16.12738
       O    -4.11079  -14.23846  -16.07090
      H1    -4.86016  -13.81460  -16.56499
       H    -4.29615  -10.63123  -15.32444
       O    -3.50563  -11.03482  -15.61994
      H1    -3.43684  -10.65896  -16.48774
       H    -3.28153  -11.94263  -12.88879
       O    -2.79073  -11.40685  -12.23860
      H1    -2.29699  -12.04275  -11.65119
       H    -2.80447   -8.37550  -13.24193
       O    -3.56062   -8.24735  -12.62486
      H1    -4.21515   -7.81765  -13.23812
       H    -3.26936   -8.58069  -16.96648
       O    -3.96820   -8.95901  -17.48978
      H1    -3.94510   -8.53928  -18.36029
       H    -0.34668  -12.13260  -15.62528
       O    -0.77226  -12.35975  -14.77485
      H1    -1.70251  -12.29216  -15.03890

