33
frame 10 | Written by MDAnalysis XYZWriter (release 2.4.3)
       H     7.26903    9.06484   10.59184
       O     7.10562    8.11929   10.53292
      H1     6.86948    7.86647    9.61966
       H     2.99934    3.66040    9.84047
       O     3.15473    4.56369   10.18693
      H1     2.38769    4.66461   10.78716
       H     3.23133    6.43157    6.95989
       O     3.61358    6.09821    6.15293
      H1     4.02616    5.25552    6.43396
       H     5.92336    3.71759    6.35999
       O     5.50582    3.99661    7.18607
      H1     6.21195    4.42755    7.68040
       H     8.34824    7.80758    4.98478
       O     8.35336    7.01062    5.58489
      H1     9.22487    6.58674    5.46806
       H     5.28768    7.39402   13.14678
       O     5.58930    6.96966   12.32526
      H1     6.27524    7.48169   11.82085
       H     7.11099    8.40578    6.78088
       O     6.72309    8.90970    7.49450
      H1     7.08734    9.83484    7.41507
       H     7.39546    6.18549    7.46538
       O     6.98935    5.81207    8.25461
      H1     6.13659    6.22047    8.39902
       H     3.30182    7.38079    8.49937
       O     2.39865    7.13091    8.25603
      H1     2.13068    7.72951    7.55509
       H     4.23441    5.77032    9.68098
       O     4.70770    6.63121    9.51771
      H1     5.02625    6.93708   10.40460
       H     6.81606    4.81932   10.33265
       O     7.22170    4.05725   10.77593
      H1     7.07162    4.25967   11.71669

