33
frame 9 | Written by MDAnalysis XYZWriter (release 2.4.3)
       H    -9.67014   11.43823   -7.80565
       O   -10.14401   10.59036   -7.65910
      H1   -10.25682   10.48182   -6.71462
       H    -8.57815   12.28994   -4.03077
       O    -8.54752   13.28907   -4.00151
      H1    -7.96582   13.46366   -4.72333
       H   -11.27739   14.81733   -4.33530
       O   -11.16809   15.72294   -3.90111
      H1   -10.24765   15.96960   -4.14135
       H    -8.93592   14.07504   -2.10188
       O    -9.54460   14.14109   -1.34950
      H1    -9.93424   13.29318   -1.25832
       H   -11.58134   10.94092   -2.87914
       O   -12.22474   11.27409   -3.48478
      H1   -12.92039   11.82106   -3.07539
       H    -8.66189   16.47312   -5.12734
       O    -8.57991   16.30104   -4.16590
      H1    -8.20420   17.14813   -3.88540
       H    -9.62500   13.45473   -8.41101
       O    -9.39930   13.18376   -7.54138
      H1   -10.10619   13.33572   -6.88257
       H   -11.44228    9.83734   -4.71539
       O   -10.73740    9.34871   -5.10407
      H1   -10.86159    8.37954   -4.84064
       H    -6.15491   12.95392   -6.89768
       O    -6.85214   13.50213   -6.45076
      H1    -7.70047   13.42315   -6.95440
       H    -8.11455   10.18890   -3.21560
       O    -8.22064   10.73030   -4.01486
      H1    -9.04093   10.40597   -4.43365
       H   -11.50946   12.57937   -4.44595
       O   -10.99768   13.22719   -4.99154
      H1   -10.10994   13.28902   -4.57235

