36
frame 2 | Written by MDAnalysis XYZWriter (release 2.4.3)
       H     0.60309  -18.89787  -15.91714
       O     0.89187  -18.71168  -14.97529
      H1     1.88771  -18.62814  -14.94331
       H     3.15091  -16.73342  -16.91405
       O     4.05228  -17.12763  -16.74475
      H1     3.87502  -17.64526  -15.96696
       H    -2.93372  -16.90644  -12.98110
       O    -2.33454  -17.16749  -13.68419
      H1    -1.70592  -17.84101  -13.36667
       H     0.03990  -15.31057  -13.61332
       O     0.42994  -15.56765  -14.48487
      H1     0.33663  -16.51705  -14.57523
       H     1.52710  -14.67988  -17.29592
       O     2.00501  -15.24897  -17.93341
      H1     2.92116  -14.93942  -18.07802
       H     0.23070  -14.39492  -15.70022
       O     0.65000  -13.67388  -16.25028
      H1    -0.12275  -13.23084  -16.63352
       H     0.01061  -13.35355  -11.98963
       O    -0.00688  -13.18042  -12.93023
      H1    -0.92192  -12.72932  -13.12846
       H     3.36106  -15.65751  -13.79336
       O     2.71119  -16.09602  -13.23415
      H1     1.88206  -15.86368  -13.70079
       H    -0.54338  -16.66802  -17.44332
       O    -1.43826  -16.30941  -17.51459
      H1    -2.04709  -16.73829  -16.90753
       H    -1.11830  -19.81865  -12.96319
       O    -0.64022  -19.01529  -12.89546
      H1     0.06003  -19.05932  -13.57571
       H     0.73253  -18.14925  -18.58442
       O     1.08646  -17.91960  -17.68816
      H1     1.49190  -17.01914  -17.79277
       H     2.95601  -12.94642  -13.46057
       O     3.10609  -12.63319  -14.32583
      H1     2.20595  -12.75189  -14.66624

