36
frame 1 | Written by MDAnalysis XYZWriter (release 2.4.3)
       H    12.99090   -1.07084  -18.03341
       O    13.79884   -0.80248  -17.57778
      H1    14.44344   -1.52547  -17.75761
       H    10.33014   -1.45568  -18.66835
       O    11.10412   -1.48515  -18.03007
      H1    11.33593   -2.45638  -18.16588
       H    13.93381   -5.39810  -12.66076
       O    14.29062   -5.08429  -13.43177
      H1    13.50842   -4.78390  -14.02615
       H    11.92739   -4.07745  -14.81698
       O    12.19891   -4.78285  -15.37630
      H1    11.88590   -5.58904  -14.88790
       H    10.00747   -2.73452  -11.91233
       O    10.36182   -3.49328  -12.35474
      H1    10.26109   -3.28361  -13.32072
       H    16.77475   -1.92502  -17.09302
       O    15.88255   -2.19142  -16.86435
      H1    15.97157   -3.17937  -16.73132
       H    13.38218   -1.10284  -14.28453
       O    12.78610   -1.41024  -14.95435
      H1    13.30125   -1.24349  -15.77039
       H     9.63974   -1.84059  -14.41854
       O    10.29999   -2.33243  -14.86728
      H1    11.02077   -1.71380  -14.99509
       H    13.19654   -1.36949  -11.28976
       O    12.59030   -1.52158  -10.45811
      H1    11.65576   -1.35256  -10.66691
       H    15.52979   -1.16406  -13.15385
       O    14.84141   -0.95262  -12.51320
      H1    14.70312    0.01204  -12.51851
       H    12.25302    0.44965  -14.81192
       O    12.07601    1.37063  -14.58687
      H1    11.80249    1.80813  -15.38000
       H    11.67582   -4.53527  -18.31901
       O    12.34033   -3.83966  -18.45345
      H1    12.81926   -3.80036  -17.60655

