36
frame 1 | Written by MDAnalysis XYZWriter (release 2.4.3)
       H   -17.33692   -5.55182   -1.55212
       O   -17.48006   -6.39395   -1.90364
      H1   -16.92130   -6.28777   -2.63510
       H   -16.49266   -6.59174    1.25557
       O   -15.95502   -7.27356    0.76349
      H1   -16.58611   -7.87035    0.32764
       H   -17.71128   -5.37384   -6.17467
       O   -18.70520   -5.52035   -6.02954
      H1   -18.98538   -5.27106   -5.13472
       H   -19.03228   -1.73552   -0.64046
       O   -18.79613   -2.29239    0.14210
      H1   -18.44197   -1.66407    0.84199
       H   -14.44210   -6.07105   -3.31563
       O   -15.36230   -5.97219   -3.72554
      H1   -15.30338   -6.49189   -4.55809
       H   -15.70349   -3.99343   -3.76430
       O   -16.14378   -3.15511   -3.60770
      H1   -15.47954   -2.48020   -3.68190
       H   -19.29746   -4.96548   -1.07996
       O   -19.41379   -4.87743   -0.14323
      H1   -19.23924   -3.90980    0.06837
       H   -17.99685   -2.63574   -5.75378
       O   -18.37230   -2.65530   -4.82377
      H1   -17.53445   -2.63375   -4.34164
       H   -17.49935   -9.29663   -1.01106
       O   -18.19589   -8.74316   -0.59323
      H1   -17.99620   -7.92357   -1.05505
       H   -16.44894   -2.58475   -2.00235
       O   -16.30123   -2.25165   -1.10663
      H1   -17.19403   -2.06903   -0.72733
       H   -18.80673   -5.73674    1.43383
       O   -18.36547   -6.07689    2.17991
      H1   -17.93140   -5.26052    2.63113
       H   -13.98878   -4.32846   -0.53890
       O   -14.27267   -3.73222    0.17320
      H1   -15.11798   -3.27576   -0.08021

