36
frame 1 | Written by MDAnalysis XYZWriter (release 2.4.3)
       H    11.51689    3.89315   18.39401
       O    10.78351    4.47141   18.69121
      H1     9.96419    4.05899   18.50635
       H    10.99888    6.15654   17.76902
       O    10.71090    6.88778   17.20280
      H1    11.43082    7.54804   17.21785
       H    10.05315    4.63983   14.30268
       O     9.60380    5.47959   14.29173
      H1     8.99957    5.25491   13.57130
       H     6.34214    4.69798   17.70538
       O     5.77345    5.33073   18.08722
      H1     5.42233    5.91051   17.43363
       H    12.86300    6.71561   14.53034
       O    12.19401    6.67747   13.79561
      H1    11.34815    6.75389   14.25636
       H     5.18829    2.28568   17.44388
       O     5.65587    1.90597   16.62849
      H1     6.53241    1.57253   16.81135
       H    10.02382    8.05324   15.34149
       O     9.67571    8.86938   15.05939
      H1     8.87566    8.73898   14.50178
       H     5.62765    7.02075   15.41622
       O     6.05811    6.51764   14.67757
      H1     5.45646    5.98629   14.16152
       H     6.69754    2.68631   13.34862
       O     6.99112    2.26296   12.56417
      H1     6.24508    1.64514   12.24939
       H     8.30104    4.47676   15.38271
       O     7.39341    4.17597   15.58944
      H1     6.88193    4.91912   15.29420
       H     7.72628    3.44163   17.09464
       O     8.11614    3.44377   18.01772
      H1     7.44488    3.06629   18.66626
       H     7.42906    6.13266   18.44569
       O     8.05031    6.78672   18.81934
      H1     8.72698    7.17542   18.24008

