36
frame 1 | Written by MDAnalysis XYZWriter (release 2.4.3)
       H    13.31729    1.50094    5.81464
       O    13.72064    1.79290    5.00396
      H1    13.56911    2.71749    5.09590
       H    12.96549    5.52214    4.81568
       O    12.90306    4.82127    4.13639
      H1    11.97671    4.68404    4.01880
       H     9.85628    7.86248    4.78170
       O    10.26035    6.99019    4.71852
      H1    10.53716    6.95503    3.73503
       H    12.90575    6.74746    7.02496
       O    12.77115    7.03774    6.08685
      H1    11.81697    7.00423    5.98375
       H     8.83193    7.12707    8.45281
       O     8.79002    7.14323    7.51587
      H1     9.31013    6.37881    7.24651
       H    12.14730   -0.03518   10.70765
       O    12.25698    0.84174   10.34485
      H1    11.50792    1.02705    9.75371
       H    12.54921    6.21075    9.61792
       O    12.90756    5.96713    8.73939
      H1    12.38644    5.31063    8.23709
       H    11.21602    3.67241    6.44118
       O    11.29095    4.14058    7.24556
      H1    10.85186    3.60765    7.94797
       H    12.55869    2.74679    7.91270
       O    13.39606    2.28948    7.97045
      H1    13.20346    1.58096    8.61650
       H    14.45960    5.67402    9.30845
       O    15.41798    5.92059    9.33493
      H1    15.71830    5.98030   10.27276
       H     9.90178    2.92438    9.55395
       O    10.28338    2.22354    9.00663
      H1     9.56619    1.53214    9.04814
       H    10.42240    2.13521    4.53889
       O    10.51231    3.00097    4.89584
      H1     9.59566    3.33639    4.92474

