36
frame 1 | Written by MDAnalysis XYZWriter (release 2.4.3)
       H    17.64966  -11.14441   15.14890
       O    17.86804  -11.80876   15.80493
      H1    17.01335  -12.18593   16.12556
       H    16.82571  -17.73494   19.87603
       O    15.91389  -17.94627   19.68996
      H1    15.64750  -17.40603   18.91504
       H    12.69391  -14.38005   15.54099
       O    11.84286  -14.42205   15.96087
      H1    11.06056  -14.45903   15.32347
       H    13.19949  -11.52423   15.74244
       O    12.76562  -10.68558   15.56038
      H1    12.25399  -10.74144   14.72363
       H    14.88081  -12.80695   17.07532
       O    15.18219  -12.19920   16.39163
      H1    15.21708  -11.36109   16.77874
       H    10.84647  -12.67301   19.29769
       O    10.77133  -12.38188   18.33910
      H1    10.89540  -13.18659   17.81210
       H    15.04673  -14.75620   14.13647
       O    14.19967  -14.35423   13.96423
      H1    14.43118  -13.55854   13.35370
       H    16.38174  -10.23155   18.27463
       O    15.60552   -9.83992   17.88775
      H1    15.20426   -9.24421   18.56243
       H    11.06614  -17.03993   17.92791
       O    11.14691  -16.84185   17.02034
      H1    11.33436  -15.89339   16.83210
       H    15.07989  -13.87819   18.77063
       O    14.29481  -13.99896   18.28322
      H1    13.58912  -14.28189   18.91501
       H    17.33614  -15.29365   15.40857
       O    16.56483  -15.74238   15.00714
      H1    16.00274  -15.83661   15.79154
       H    14.50402  -16.93751   16.85436
       O    15.12376  -16.45564   17.36609
      H1    14.71895  -15.65062   17.67186

