36
frame 1 | Written by MDAnalysis XYZWriter (release 2.4.3)
       H    17.02524   -1.55193   12.02011
       O    16.61501   -1.94140   12.84554
      H1    15.88868   -1.35138   13.12926
       H    16.37897   -2.96396   17.16204
       O    16.02428   -2.15718   16.71880
      H1    15.23176   -2.50122   16.28915
       H    15.91557    0.78907   17.37225
       O    16.48517    0.76931   16.58150
      H1    16.56824   -0.13838   16.25624
       H    11.96851    1.36457   13.77667
       O    12.39589    0.55567   14.11142
      H1    12.97401    0.15876   13.44201
       H    11.45598   -4.72610   13.74561
       O    11.66147   -3.82308   13.99614
      H1    11.84310   -3.46789   13.11951
       H    12.85574   -3.01526   15.01488
       O    13.56960   -2.50857   15.36855
      H1    13.11752   -1.86404   15.96342
       H    13.04160   -4.96844   17.44298
       O    13.90261   -4.58778   17.40254
      H1    13.82909   -3.84776   16.77442
       H    12.71904   -1.38448   18.38032
       O    12.32205   -1.21535   17.50939
      H1    11.70885   -1.94126   17.43644
       H    15.10262    1.58499   15.77160
       O    14.26566    2.03702   15.58173
      H1    13.68193    1.36859   15.23773
       H    15.47218   -2.84177   19.47611
       O    14.86826   -2.17008   19.27654
      H1    15.24822   -1.80330   18.46449
       H    16.65471   -4.53668   14.44323
       O    16.36432   -4.81492   13.56066
      H1    16.45003   -3.96100   13.12206
       H    10.34997   -2.63959   14.65311
       O     9.42600   -2.33709   14.73930
      H1     9.43849   -1.39006   14.62966

