36
frame 1 | Written by MDAnalysis XYZWriter (release 2.4.3)
       H     3.39101  -17.89053  -13.45237
       O     3.43066  -18.31912  -14.32154
      H1     3.49515  -19.24561  -14.11026
       H     4.37944  -16.36421  -10.07738
       O     4.94327  -16.99947  -10.54049
      H1     5.85630  -16.85221  -10.27430
       H     0.47030  -18.49551  -15.94769
       O     0.17327  -18.78305  -15.06714
      H1     0.78125  -19.31910  -14.56709
       H     4.86328  -15.90145  -15.19586
       O     5.37057  -15.39144  -14.52830
      H1     6.03673  -16.03261  -14.18492
       H     3.23897  -16.44688  -16.58592
       O     4.12291  -16.73810  -16.44805
      H1     3.97694  -17.54446  -15.85486
       H    -0.23311  -15.92936  -13.60313
       O     0.59625  -15.83813  -14.08687
      H1     0.68657  -16.70220  -14.52785
       H     2.54928  -17.79505  -10.08898
       O     2.10387  -17.01671  -10.45561
      H1     2.59916  -16.70075  -11.25520
       H     6.42692  -18.13212  -16.10014
       O     6.72197  -18.95382  -15.70081
      H1     6.65757  -19.50644  -16.47948
       H     3.88029  -15.42065  -13.43645
       O     3.08171  -15.89379  -13.09910
      H1     2.36301  -15.81625  -13.74357
       H     5.02286  -19.71040  -18.23552
       O     4.02360  -19.61358  -18.40148
      H1     3.81459  -18.69897  -18.26418
       H     6.91026  -19.28823  -13.83613
       O     7.42125  -19.28332  -13.04568
      H1     6.79575  -19.47982  -12.29117
       H     7.93849  -16.24419  -13.85888
       O     7.33287  -16.51263  -13.18296
      H1     7.35666  -17.46025  -13.22019

