36
frame 2 | Written by MDAnalysis XYZWriter (release 2.4.3)
       H     5.67350    4.07601   11.14355
       O     4.74535    3.94614   11.34277
      H1     4.73042    3.12313   11.88931
       H     2.79568    3.47169    8.84874
       O     3.77898    3.61644    8.91705
      H1     4.06752    3.49508    9.84019
       H     5.31425    3.43091   14.88012
       O     5.50709    2.46322   14.90302
      H1     5.12618    2.12131   15.73133
       H     5.05554    6.20078   15.43375
       O     5.63272    5.76528   14.77812
      H1     5.19692    5.95693   13.96160
       H     6.31028    2.03580   12.79341
       O     6.93390    2.06380   12.07251
      H1     6.37557    1.61491   11.34607
       H     1.23378    5.41907   12.79210
       O     1.71668    6.15330   13.05795
      H1     1.72750    6.04591   14.02967
       H     4.32338    5.53959   12.03390
       O     4.25702    6.41304   12.43439
      H1     3.29798    6.51980   12.66681
       H     4.36048    8.04548   11.76383
       O     4.58737    8.64673   11.03629
      H1     5.59095    8.60806   10.97645
       H     2.59009    6.68330    8.68203
       O     1.62859    6.79008    8.74453
      H1     1.54420    7.66703    8.33323
       H     4.45623    5.55559    9.10319
       O     4.31511    6.52978    9.04967
      H1     4.33616    6.91235    9.92163
       H     4.32241    1.95038   13.62177
       O     3.96010    1.73539   12.72850
      H1     3.03063    1.86042   12.88931
       H     6.96830    5.37076    9.38169
       O     7.04735    4.85970   10.19618
      H1     7.70725    5.41583   10.64764

