36
frame 2 | Written by MDAnalysis XYZWriter (release 2.4.3)
       H    -7.62278   -4.57221    6.39474
       O    -7.56203   -3.67772    6.01944
      H1    -7.13733   -3.74638    5.16467
       H   -10.09805   -1.67748    2.00871
       O    -9.15619   -1.67468    2.22477
      H1    -9.11551   -0.90890    2.84941
       H   -10.91841   -4.42139    2.95019
       O   -10.76125   -3.81645    3.67995
      H1   -10.11868   -3.14134    3.37728
       H   -11.18429    0.03250    4.69829
       O   -10.62734    0.81457    4.69418
      H1    -9.69947    0.52359    4.72502
       H   -11.90580   -2.27471    4.43453
       O   -12.14571   -1.39826    4.46747
      H1   -13.00747   -1.57493    4.80877
       H    -8.96709   -2.27108    6.30427
       O    -9.64587   -1.60017    6.48040
      H1   -10.20469   -1.70389    5.68702
       H   -14.24425   -5.64173    4.68966
       O   -14.82465   -4.93422    4.89082
      H1   -14.29216   -4.29007    5.42952
       H   -10.65153   -5.23695    5.01573
       O   -10.43608   -6.12381    5.34538
      H1   -10.04111   -6.54503    4.59351
       H   -11.94701   -3.26591    1.25372
       O   -11.67961   -2.33785    1.23724
      H1   -12.43082   -1.82962    1.61742
       H   -12.05427   -6.06820    1.28958
       O   -11.50284   -5.29165    1.38453
      H1   -10.79120   -5.37748    0.76555
       H   -11.87326   -6.68302    4.62763
       O   -12.82884   -6.85976    4.47606
      H1   -12.87419   -7.34991    3.61767
       H   -12.70303   -5.03058    7.08510
       O   -12.53836   -4.24603    6.57905
      H1   -12.07966   -3.59978    7.14876

