36
frame 2 | Written by MDAnalysis XYZWriter (release 2.4.3)
       H    -0.41811  -16.65073    1.50667
       O     0.45583  -17.01658    1.37150
      H1     1.03594  -16.46427    1.93539
       H    -1.87558  -14.44857   -5.09093
       O    -1.65587  -13.55874   -5.32020
      H1    -2.06330  -12.94134   -4.73009
       H    -4.68157  -14.83881   -0.71223
       O    -4.08661  -14.33484   -1.30469
      H1    -3.27969  -14.89514   -1.38742
       H    -0.81015  -15.78391   -1.17533
       O    -1.76030  -15.84644   -1.06274
      H1    -2.06561  -16.73132   -1.26897
       H    -1.97178  -15.51835    0.95399
       O    -1.91213  -15.94553    1.79478
      H1    -1.82040  -15.14705    2.35318
       H    -6.14858  -14.10463   -3.44446
       O    -5.42674  -14.66655   -3.59309
      H1    -4.86963  -14.51828   -2.77513
       H    -3.50567  -16.69089    2.26783
       O    -4.16968  -17.34313    2.57174
      H1    -5.05128  -16.87074    2.48039
       H    -4.64932  -10.96972   -1.20149
       O    -5.24016  -11.73950   -1.07786
      H1    -4.67572  -12.50444   -0.85965
       H     0.77177  -13.86989   -1.32861
       O     1.11639  -14.59566   -0.71955
      H1     1.78330  -15.12504   -1.23385
       H    -2.26605  -18.42762   -3.08019
       O    -1.49872  -18.37106   -2.54208
      H1    -1.87717  -19.03903   -1.92822
       H     1.62673  -11.86468    0.81875
       O     0.84130  -12.28068    1.11013
      H1     0.92543  -13.21295    0.76401
       H     1.58892  -17.42957    0.21668
       O     2.39824  -18.02412   -0.01788
      H1     3.21363  -17.46168    0.13760

