36
frame 3 | Written by MDAnalysis XYZWriter (release 2.4.3)
       H   -16.91545  -10.61109   11.97677
       O   -16.63006  -11.53879   11.96620
      H1   -17.42690  -12.02457   12.09903
       H   -16.67352   -8.36798   11.49908
       O   -17.39021   -8.87683   11.86005
      H1   -18.18992   -8.72785   11.33225
       H   -19.62266  -12.80554   11.52692
       O   -19.98025  -12.90228   10.60914
      H1   -19.23722  -12.95685    9.98257
       H   -17.85911  -15.78492   11.22624
       O   -17.25503  -15.71427   12.00359
      H1   -16.74744  -14.93560   11.85785
       H   -14.48185  -13.92330    9.75909
       O   -15.28013  -14.50597    9.86870
      H1   -14.87223  -15.18995   10.44511
       H   -13.46044  -12.10939   13.23561
       O   -14.13073  -11.54220   13.60179
      H1   -14.91866  -11.53487   13.05911
       H   -18.81392  -12.68243    6.54889
       O   -18.95002  -11.83133    6.95459
      H1   -18.30356  -11.73463    7.71546
       H   -19.28603  -14.82627   14.53327
       O   -19.10945  -14.13678   15.17909
      H1   -19.80680  -14.23550   15.83419
       H   -17.08645  -13.41505    9.17302
       O   -17.49347  -12.54335    9.29222
      H1   -16.89916  -12.08866    9.94709
       H   -19.16252  -17.03271    9.84461
       O   -19.08741  -16.11547    9.57152
      H1   -19.96048  -15.73219    9.72848
       H   -18.33856  -16.19716   13.33475
       O   -19.19172  -16.49644   13.80036
      H1   -18.97118  -17.34531   14.20838
       H   -17.46383  -14.43952   15.21781
       O   -16.50154  -14.53278   15.23527
      H1   -16.21438  -15.39161   15.40469

