36
frame 2 | Written by MDAnalysis XYZWriter (release 2.4.3)
       H    -5.36968   12.33723   15.86107
       O    -4.51773   12.39984   16.30346
      H1    -4.68562   13.23832   16.79800
       H    -8.44887   15.15555   13.61409
       O    -8.15671   14.26206   13.68511
      H1    -8.17349   14.00477   14.58743
       H    -8.76379   13.93985   16.93093
       O    -7.97572   14.39003   16.60693
      H1    -8.19061   15.30806   16.65413
       H    -5.84096   17.58550   14.34263
       O    -6.28622   18.22163   14.87282
      H1    -6.08617   19.12292   14.58640
       H    -0.75674   13.60771   16.13669
       O    -0.55951   14.15030   15.36471
      H1    -0.90810   14.97916   15.60848
       H    -6.12737   14.50118   17.18935
       O    -5.27648   14.59503   17.59590
      H1    -5.03721   15.50867   17.28440
       H    -1.33263   17.05438   19.10007
       O    -2.32051   17.16418   19.24177
      H1    -2.48532   16.49406   19.91567
       H    -4.38688   14.89240   13.52116
       O    -3.81635   15.45357   14.00603
      H1    -3.36757   14.89402   14.60271
       H    -5.07494   18.00863   16.92925
       O    -4.50078   17.22556   17.00330
      H1    -3.80744   17.49827   17.59340
       H    -2.04271   13.02337   14.69561
       O    -2.43941   12.16698   14.79820
      H1    -3.08697   12.30445   15.51564
       H    -8.82550   17.13064   15.27145
       O    -8.41502   17.07249   16.10876
      H1    -7.60740   17.53944   15.90097
       H    -2.88479   16.51247   16.32120
       O    -2.00087   16.64585   16.01452
      H1    -2.04552   17.59298   15.79220

