36
frame 2 | Written by MDAnalysis XYZWriter (release 2.4.3)
       H     5.52859  -14.96727   19.42156
       O     6.03975  -15.61734   18.85830
      H1     6.13976  -15.13386   18.00950
       H    11.16039  -12.41676   18.94973
       O    12.02179  -12.15657   18.61334
      H1    12.05169  -12.62675   17.76010
       H     7.31211  -11.79475   19.32430
       O     7.04087  -11.74194   18.42990
      H1     7.82978  -11.54142   17.90075
       H     3.32825  -10.60572   17.06075
       O     3.72375  -11.27540   16.44792
      H1     3.96888  -12.00492   17.08229
       H     6.64164   -8.63184   19.35279
       O     6.74274   -8.84903   18.40656
      H1     6.78356   -9.81644   18.43008
       H     2.67628  -12.88822   18.94777
       O     3.39424  -12.28538   19.04534
      H1     3.19269  -11.59520   19.70288
       H     4.99022   -8.11103   17.75187
       O     4.08379   -7.79685   17.79135
      H1     4.08234   -7.00880   17.24063
       H     5.63654  -13.01632   13.97961
       O     5.30634  -13.38312   14.79861
      H1     4.40708  -13.10253   14.92205
       H     9.17976   -9.47399   16.68826
       O     8.94258  -10.40955   16.68749
      H1     9.80113  -10.80618   16.64768
       H     6.85409  -13.40961   17.61337
       O     6.76246  -14.03206   16.88165
      H1     6.37789  -13.58132   16.17870
       H     7.77720  -10.71304   14.99738
       O     7.29896  -10.93332   14.18779
      H1     6.40434  -10.51965   14.29532
       H     7.56898   -6.98395   15.92416
       O     8.29184   -7.26878   16.54404
      H1     7.84144   -7.68855   17.30628

