36
frame 0 | Written by MDAnalysis XYZWriter (release 2.4.3)
       H    16.98177   14.04467   -6.76188
       O    16.63546   14.72820   -6.17684
      H1    15.84654   14.43365   -5.77351
       H    14.16148   15.05807    1.64928
       O    14.05304   14.36483    0.92262
      H1    14.83985   13.86036    1.14155
       H    14.53896   10.88431   -3.29217
       O    14.94515   11.29538   -4.04637
      H1    14.62125   12.22303   -4.03003
       H    18.08457   15.27591   -5.25116
       O    18.87629   15.40541   -4.73831
      H1    19.41528   14.62922   -4.82205
       H    18.53872   10.47631   -3.96821
       O    17.75027   10.06015   -3.60095
      H1    17.02879   10.69869   -3.70700
       H    15.20490   12.18414   -0.57464
       O    15.45483   11.64423    0.15226
      H1    14.89020   10.87282    0.02175
       H    17.90425   10.27323   -1.66325
       O    17.42788   10.05967   -0.84981
      H1    16.75738   10.64412   -0.55628
       H    16.50164   16.87704   -0.21569
       O    16.07825   17.44728    0.47445
      H1    16.44716   17.08816    1.28572
       H    17.16813   12.68455   -1.41842
       O    16.64005   13.27545   -1.97607
      H1    17.11136   14.16843   -1.96762
       H    16.10107   16.68979   -4.95340
       O    15.73175   16.75073   -4.11358
      H1    15.15754   15.94261   -4.13011
       H    13.91032   14.19280   -3.23283
       O    14.67686   14.01635   -3.71715
      H1    15.31476   13.66263   -3.09849
       H    16.83254   16.34375   -2.55843
       O    17.52625   15.86398   -2.02273
      H1    18.27272   15.85089   -2.64913

