36
frame 0 | Written by MDAnalysis XYZWriter (release 2.4.3)
       H   -17.04082   -2.16456  -11.01205
       O   -16.30113   -1.67590  -11.46378
      H1   -15.58068   -2.24331  -11.72559
       H   -12.60179   -5.56523  -10.72816
       O   -13.07536   -4.83854  -10.30646
      H1   -12.40491   -4.39330   -9.67491
       H   -14.99600   -4.87220  -10.10746
       O   -15.91248   -5.08052  -10.07671
      H1   -16.19310   -4.64046   -9.25064
       H   -14.54214   -1.98039   -6.33146
       O   -14.35987   -2.93994   -6.43792
      H1   -13.80041   -2.94474   -7.22457
       H   -15.69090   -3.86716   -7.12827
       O   -16.52029   -4.19100   -7.52051
      H1   -17.13832   -3.43848   -7.46286
       H   -16.68443   -8.18729  -11.99654
       O   -17.10445   -8.96083  -11.57036
      H1   -17.54511   -8.71060  -10.74512
       H   -19.24071   -7.58145   -9.56021
       O   -18.60364   -8.24372   -9.19133
      H1   -18.30514   -7.95493   -8.31824
       H   -19.21138   -1.22114  -10.44881
       O   -18.61112   -2.00109  -10.21016
      H1   -18.27034   -1.93764   -9.33033
       H   -16.42083   -7.34768   -6.09618
       O   -15.56875   -7.03425   -5.70385
      H1   -15.22932   -6.54847   -6.47268
       H   -13.49931   -5.73436   -8.56561
       O   -13.53589   -6.52051   -7.95618
      H1   -12.71216   -6.36303   -7.41940
       H   -17.72018   -6.58382  -12.59719
       O   -16.75529   -6.48259  -12.44710
      H1   -16.57402   -5.68082  -11.90890
       H   -14.23998   -3.78331  -12.93459
       O   -14.13760   -3.18893  -12.18027
      H1   -13.54462   -3.68951  -11.59789

