36
frame 2 | Written by MDAnalysis XYZWriter (release 2.4.3)
       H    -7.34736    6.22728   -8.12988
       O    -7.88550    6.77892   -7.52909
      H1    -8.79498    6.55649   -7.71327
       H   -10.26009    5.36076   -7.23270
       O   -10.46706    5.48195   -8.17441
      H1   -10.04268    4.73254   -8.67744
       H    -8.07092    8.27058   -8.96948
       O    -8.47362    8.91079   -9.60277
      H1    -9.42990    8.83787   -9.35922
       H   -10.98054    9.62204  -12.99979
       O   -11.21089    9.30364  -12.14551
      H1   -11.40128   10.12000  -11.61098
       H   -11.51193    6.26288  -13.24922
       O   -10.87468    5.67293  -12.82808
      H1   -10.19671    6.17541  -12.34982
       H    -7.23199    6.86632  -13.96140
       O    -7.98691    7.55547  -13.93160
      H1    -8.38085    7.43183  -13.05955
       H   -11.46003    3.28090  -10.66289
       O   -10.69066    3.39341  -11.23544
      H1   -10.72220    4.32997  -11.61866
       H   -12.52411    6.65784  -10.43895
       O   -12.69356    6.24956   -9.56254
      H1   -11.80699    5.97044   -9.23520
       H    -9.55289    7.79881  -14.86470
       O   -10.10934    7.95684  -15.67244
      H1   -10.92747    7.53483  -15.30051
       H    -6.19254    5.24879  -10.50123
       O    -6.88296    5.31619   -9.80464
      H1    -6.59438    4.68385   -9.10642
       H    -8.29093    6.09332  -10.76715
       O    -8.82428    6.74185  -11.30959
      H1    -8.63702    7.54179  -10.92408
       H    -8.27844   12.03685  -11.13476
       O    -7.99039   11.16685  -11.43527
      H1    -8.19146   10.58691  -10.65978

