36
frame 2 | Written by MDAnalysis XYZWriter (release 2.4.3)
       H    -8.25109  -14.95787  -15.36178
       O    -8.85520  -14.77228  -14.61741
      H1    -8.78172  -13.81707  -14.44663
       H    -6.35493  -19.20736  -16.90787
       O    -6.09482  -18.73069  -16.10549
      H1    -5.77242  -19.34855  -15.44203
       H    -7.43381  -16.55490  -13.94777
       O    -7.15027  -17.43098  -13.68964
      H1    -6.97020  -17.91321  -14.48557
       H    -4.74353  -17.77556  -16.02731
       O    -3.97400  -17.21377  -16.00339
      H1    -3.48967  -17.36434  -15.20563
       H    -7.23530  -17.34833  -10.62785
       O    -7.28531  -16.52271  -11.14095
      H1    -7.12317  -16.80055  -12.07457
       H    -5.18584  -15.30110  -15.57700
       O    -6.03043  -14.95083  -15.70698
      H1    -5.90153  -14.03113  -15.43997
       H    -2.93372  -16.90644  -12.98110
       O    -2.33454  -17.16749  -13.68419
      H1    -1.70592  -17.84101  -13.36667
       H    -0.54338  -16.66802  -17.44332
       O    -1.43826  -16.30941  -17.51459
      H1    -2.04709  -16.73829  -16.90753
       H    -8.67423  -17.48323  -17.30256
       O    -8.39500  -16.54424  -17.24742
      H1    -7.46121  -16.59192  -17.37741
       H    -5.64531  -16.75499  -19.35330
       O    -5.70619  -15.88541  -18.89760
      H1    -5.22584  -15.79276  -18.04311
       H   -10.11685  -17.79745  -13.14291
       O    -9.56781  -18.58566  -13.03904
      H1    -8.66022  -18.24055  -13.14415
       H    -8.62464  -18.93253  -19.72038
       O    -8.65307  -19.08657  -18.76504
      H1    -9.58795  -19.16362  -18.50322

