36
frame 2 | Written by MDAnalysis XYZWriter (release 2.4.3)
       H    11.90467   -1.36678   -0.01711
       O    12.45698   -1.25463   -0.83469
      H1    12.63308   -2.19940   -1.15586
       H    12.46930    3.86095   -6.54301
       O    12.36027    3.92187   -5.55530
      H1    13.18715    4.43177   -5.30425
       H    15.98555    2.84646   -3.13512
       O    15.20231    3.15693   -3.63843
      H1    15.51829    4.00090   -4.04972
       H    10.45320    2.99040   -2.33878
       O    11.09677    3.25650   -1.71211
      H1    11.79644    3.69704   -2.13218
       H     9.64369    1.07618   -3.75113
       O    10.21842    0.65799   -3.11983
      H1    11.11031    0.80492   -3.39868
       H    14.40913    1.31165   -1.38453
       O    14.18095    0.58883   -2.03264
      H1    13.43592    0.09884   -1.58116
       H    12.23370    1.79302    0.15672
       O    11.67385    1.48927    0.87406
      H1    11.36251    2.29874    1.27432
       H    12.94499    2.25477   -4.64463
       O    12.69797    1.37348   -4.23908
      H1    13.31456    1.43327   -3.47648
       H    12.64104    0.43647   -5.95534
       O    12.29212    0.11180   -6.76295
      H1    12.86204    0.64700   -7.34236
       H    14.38888   -0.41124   -3.50821
       O    14.81686   -1.02951   -4.04871
      H1    14.01051   -1.50828   -4.42190
       H    15.62237    0.08762   -6.85971
       O    15.44859    0.65858   -6.09160
      H1    15.28824    0.04027   -5.35805
       H    14.13880    4.51284   -2.31107
       O    13.46523    4.85107   -1.75828
      H1    13.34473    4.36181   -0.91307

