36
frame 2 | Written by MDAnalysis XYZWriter (release 2.4.3)
       H    18.38982   17.05863  -16.77309
       O    19.27433   17.09921  -17.16143
      H1    19.14507   17.58764  -17.96524
       H    11.09961   16.49981  -15.79071
       O    11.85139   16.09071  -16.25312
      H1    11.59438   15.17593  -16.33774
       H    15.57953   14.24869  -16.40012
       O    15.35083   14.10672  -15.47454
      H1    14.85608   13.26799  -15.38506
       H    16.68539   16.65768  -12.54143
       O    16.92103   16.94181  -11.62028
      H1    16.56745   16.31043  -10.96930
       H    16.96803   16.42045  -15.61011
       O    16.72865   17.07299  -16.35249
      H1    15.83065   17.34608  -16.28730
       H    15.19165   16.97393  -20.24487
       O    15.44508   16.94929  -19.33394
      H1    14.84406   17.49833  -18.86379
       H    15.57977   19.38400  -13.00786
       O    15.40958   19.62436  -13.91172
      H1    16.32782   19.60796  -14.34783
       H    11.73462   17.56508  -18.13775
       O    11.73853   17.31916  -19.11256
      H1    12.20557   17.99312  -19.60695
       H    14.11954   15.03656  -14.50203
       O    13.37263   15.56956  -14.15517
      H1    12.79718   15.59827  -14.96836
       H    17.34516   18.80134  -16.16926
       O    17.57152   19.48501  -15.55580
      H1    18.40229   19.20291  -15.12350
       H    14.76162   18.49490  -15.18138
       O    14.33417   17.93575  -15.88001
      H1    14.13735   17.10299  -15.36737
       H    15.94575   15.28043  -18.26639
       O    16.35139   14.44733  -17.94055
      H1    17.31182   14.51604  -18.08530

