36
frame 2 | Written by MDAnalysis XYZWriter (release 2.4.3)
       H    18.38982   17.05863  -16.77309
       O    19.27433   17.09921  -17.16143
      H1    19.14507   17.58764  -17.96524
       H    15.57953   14.24869  -16.40012
       O    15.35083   14.10672  -15.47454
      H1    14.85608   13.26799  -15.38506
       H    16.96803   16.42045  -15.61011
       O    16.72865   17.07299  -16.35249
      H1    15.83065   17.34608  -16.28730
       H    19.17945   15.51192  -17.78090
       O    19.08768   14.74192  -18.34986
      H1    19.63612   14.05356  -17.90838
       H    17.38427   13.28181  -15.56722
       O    18.33700   13.46642  -15.43561
      H1    18.80765   13.09790  -16.20322
       H    16.82456   11.23342  -17.42080
       O    16.03818   11.75855  -17.71527
      H1    16.24091   12.71465  -17.74755
       H    18.42469    9.35528  -17.01491
       O    18.32894   10.18574  -17.52871
      H1    19.19020   10.33888  -17.89518
       H    15.19165   16.97393  -20.24487
       O    15.44508   16.94929  -19.33394
      H1    14.84406   17.49833  -18.86379
       H    17.34516   18.80134  -16.16926
       O    17.57152   19.48501  -15.55580
      H1    18.40229   19.20291  -15.12350
       H    19.08546   16.07635  -13.86654
       O    18.26989   15.97044  -14.40064
      H1    18.35970   15.05449  -14.79343
       H    19.79245   11.73222  -12.01500
       O    19.31498   11.80301  -12.81202
      H1    18.41292   11.89639  -12.58411
       H    15.94575   15.28043  -18.26639
       O    16.35139   14.44733  -17.94055
      H1    17.31182   14.51604  -18.08530

