36
frame 3 | Written by MDAnalysis XYZWriter (release 2.4.3)
       H   -17.53032   -2.14820  -12.21901
       O   -16.87214   -1.57394  -12.62697
      H1   -16.75252   -1.80771  -13.56541
       H   -15.56794   -2.19505  -11.76573
       O   -14.80250   -2.57212  -11.29024
      H1   -14.92875   -3.53677  -11.23903
       H   -12.91616   -6.49236   -9.57514
       O   -13.63568   -5.91006   -9.23752
      H1   -13.24333   -5.05855   -9.46709
       H   -17.32174   -3.43841  -10.36792
       O   -18.06055   -2.95916  -10.72399
      H1   -18.38083   -2.65151   -9.87292
       H   -15.61631   -1.38210   -8.44880
       O   -15.01273   -2.13720   -8.47132
      H1   -14.74085   -2.12534   -9.39046
       H   -14.58634   -5.16967   -7.38708
       O   -14.81790   -4.54750   -6.65681
      H1   -14.89930   -3.66406   -7.11657
       H   -13.33559   -1.08008   -9.00642
       O   -12.42052   -1.16054   -9.19977
      H1   -12.36044   -0.55092  -10.00646
       H   -13.27773   -2.20271  -12.09873
       O   -12.46290   -2.06230  -12.64304
      H1   -12.68920   -1.55619  -13.40513
       H   -17.46699    0.33580   -7.00414
       O   -17.42404   -0.24367   -7.74660
      H1   -17.86488    0.19510   -8.44918
       H   -15.38703    1.85681   -9.79596
       O   -14.90303    1.44389   -9.07117
      H1   -15.11878    1.96122   -8.29689
       H   -10.96938   -3.69255  -10.02334
       O   -11.91600   -3.63985  -10.15120
      H1   -12.09102   -2.77149   -9.88921
       H   -15.90120   -4.87412  -12.32437
       O   -15.63804   -5.04080  -11.39916
      H1   -15.13617   -5.86862  -11.26859

