36
frame 3 | Written by MDAnalysis XYZWriter (release 2.4.3)
       H    12.67328  -17.73314  -17.08380
       O    12.74185  -17.42231  -16.21876
      H1    11.89360  -16.93735  -16.06394
       H    16.38928  -13.62574  -15.19103
       O    15.45646  -13.66363  -14.92175
      H1    15.24915  -14.56784  -14.73882
       H    13.86037  -16.57285  -15.11449
       O    14.57064  -16.23381  -14.55673
      H1    14.30391  -16.52175  -13.61029
       H    18.53192  -18.35364  -19.22247
       O    19.10435  -18.99633  -19.60882
      H1    19.97341  -18.87974  -19.19202
       H    19.25902  -13.16970  -15.33064
       O    19.06121  -13.94665  -14.80686
      H1    19.80743  -14.16410  -14.22666
       H    15.32103  -19.92082  -13.72843
       O    15.26350  -19.82045  -14.73461
      H1    15.81719  -19.10603  -15.05715
       H    15.76837  -12.80356  -18.79859
       O    15.84717  -13.65677  -19.28230
      H1    15.76120  -14.41593  -18.69343
       H    12.41507  -14.18525  -18.92774
       O    12.51022  -15.07207  -18.56138
      H1    13.43317  -15.16627  -18.27489
       H    17.16582  -19.91296  -16.19049
       O    17.39514  -18.94356  -16.22277
      H1    18.26552  -18.92125  -15.80017
       H    18.21845  -16.35537  -17.76758
       O    17.68813  -17.08414  -18.12832
      H1    17.79043  -17.74357  -17.39334
       H    19.37059  -14.60474  -16.53965
       O    19.33750  -15.14645  -17.30862
      H1    19.11789  -14.74783  -18.20280
       H    15.26841  -15.52423  -16.74479
       O    15.32127  -15.88787  -17.63064
      H1    16.16896  -16.34557  -17.69600

