36
frame 2 | Written by MDAnalysis XYZWriter (release 2.4.3)
       H     8.13157  -17.71474   -9.91246
       O     8.29432  -16.77058  -10.07172
      H1     7.71798  -16.57452  -10.83754
       H    11.61575  -12.24611   -8.94724
       O    10.72976  -12.63652   -8.87013
      H1    10.82337  -13.60776   -8.87622
       H     6.57829  -14.53872   -8.82686
       O     6.99311  -15.28464   -8.34085
      H1     7.45683  -15.82443   -9.03841
       H    12.55576  -19.00563   -8.39702
       O    12.14335  -18.41751   -9.04267
      H1    12.72175  -17.72274   -9.25706
       H     9.56599  -19.41496   -7.10494
       O    10.09596  -18.61357   -7.02717
      H1    10.35813  -18.35698   -7.89169
       H     8.33028  -11.34494   -7.28799
       O     9.21208  -11.56172   -7.01265
      H1     9.66109  -11.85781   -7.87038
       H    12.21944  -14.61067   -6.22762
       O    12.34933  -15.41567   -6.66391
      H1    11.67463  -15.55340   -7.33878
       H    11.39782  -15.93499   -9.25206
       O    10.60794  -15.55460   -8.84066
      H1     9.82080  -15.83494   -9.29374
       H    11.96348  -15.23660  -11.61007
       O    11.70443  -14.93191  -12.48852
      H1    12.21273  -14.13614  -12.69037
       H    10.22720  -13.69188  -12.07818
       O     9.38958  -13.31759  -11.72602
      H1     9.64375  -12.67575  -11.02192
       H     8.04039  -14.54962   -6.92151
       O     8.33934  -14.15298   -6.10501
      H1     8.67718  -13.22246   -6.42404
       H    13.56888  -15.03105   -9.56929
       O    13.20390  -15.84707   -9.94403
      H1    13.78632  -16.16522  -10.68372

