36
frame 3 | Written by MDAnalysis XYZWriter (release 2.4.3)
       H     1.75969   10.24008   -1.31326
       O     1.77450    9.39903   -1.73551
      H1     2.50575    8.96709   -1.25795
       H     0.62686    9.25010   -3.88713
       O     1.17260    8.72277   -4.49935
      H1     0.93246    9.02820   -5.37023
       H     7.59529    9.26918   -6.03492
       O     7.42540    9.79179   -5.19018
      H1     6.49692    9.65727   -4.86217
       H     3.69392    5.40188   -5.47297
       O     4.20214    6.23435   -5.41021
      H1     3.92486    6.66356   -6.25459
       H     3.15401    6.77447   -0.13515
       O     3.64522    7.57653   -0.49943
      H1     3.70480    7.35160   -1.41332
       H     2.87282   11.61355   -4.97425
       O     3.12838   11.15671   -4.21238
      H1     2.30036   10.71242   -3.94156
       H     5.93805    5.29639   -5.65306
       O     6.49985    4.77977   -6.21822
      H1     6.86079    4.07874   -5.59019
       H     4.31099    9.35587   -7.86277
       O     4.15589   10.34047   -7.69436
      H1     3.19627   10.46327   -7.67245
       H     3.38904    6.81606   -3.98842
       O     2.79547    7.14533   -3.31057
      H1     2.04871    7.66418   -3.71161
       H     4.35485    7.90274   -9.27328
       O     4.27208    7.58315   -8.36009
      H1     3.87497    6.66852   -8.38575
       H     4.39593    8.55051   -4.63977
       O     4.96366    9.19919   -4.24470
      H1     4.35243    9.96066   -4.12529
       H     7.18322    6.00524   -3.08445
       O     6.34005    6.44865   -2.87971
      H1     6.49675    7.33554   -3.24202

