36
frame 0 | Written by MDAnalysis XYZWriter (release 2.4.3)
       H    -0.40736  -18.33121   18.50798
       O     0.28844  -17.91043   19.01638
      H1     1.06576  -18.34314   18.54202
       H    -2.28421  -16.03266   15.05410
       O    -2.54440  -16.89509   15.39640
      H1    -3.39573  -16.97579   14.89356
       H    -1.89937  -15.49427   18.09965
       O    -2.84656  -15.79195   18.00452
      H1    -2.76859  -16.32803   17.11036
       H    -0.94826  -13.90687   19.31618
       O    -1.27618  -13.01805   19.33074
      H1    -0.88046  -12.71208   18.47121
       H    -2.20536  -18.41512   20.05085
       O    -2.37373  -18.28108   19.07969
      H1    -2.53354  -17.33290   18.91054
       H    -8.28159  -17.91949   17.46605
       O    -8.06167  -18.75544   18.00325
      H1    -7.11626  -18.77763   18.12051
       H    -0.00872  -16.30976   19.02883
       O     0.04442  -15.35950   18.81409
      H1     0.80761  -15.15387   18.22120
       H     2.50157  -17.23555   16.03182
       O     2.50754  -16.38086   15.55369
      H1     3.30154  -16.53321   14.96144
       H    -5.46383  -14.64989   19.58458
       O    -5.50708  -13.89549   18.98086
      H1    -4.72906  -13.32553   19.00647
       H    -4.43355  -14.85800   16.91039
       O    -4.64578  -14.82948   15.95830
      H1    -5.61383  -14.61761   15.90097
       H     3.07116  -18.22906   18.04157
       O     2.36080  -18.69495   17.47830
      H1     2.60935  -19.63395   17.51587
       H    -0.10502  -19.20310   14.99582
       O    -0.94920  -19.25360   15.43289
      H1    -1.22725  -18.29909   15.48397

