36
frame 3 | Written by MDAnalysis XYZWriter (release 2.4.3)
       H     9.39542   14.97993    8.61427
       O     8.54223   14.60764    8.48960
      H1     8.71878   13.88537    7.90663
       H    10.49032   16.67166    9.91702
       O    10.93666   16.19079    9.10885
      H1    11.88090   16.46011    9.31785
       H     9.75713   14.53199    5.39127
       O    10.18258   13.68136    5.44418
      H1    11.15257   13.86016    5.47929
       H     7.79936   18.04627    7.84814
       O     8.42188   17.30949    7.73898
      H1     8.01724   16.56164    8.20391
       H     8.79985   16.44851    6.01600
       O     9.19708   16.12640    5.20497
      H1     8.43109   16.22868    4.57115
       H     6.56924   12.02544   11.02540
       O     7.11608   11.46903   10.40411
      H1     8.02079   11.63988   10.48118
       H     9.43347   12.47453   11.76559
       O     9.89075   12.02346   10.96273
      H1    10.15662   11.19770   11.33119
       H    10.53394   11.09742    7.49205
       O     9.75732   11.22183    6.89619
      H1     9.78749   12.14380    6.58292
       H     7.94106   10.76319    7.74320
       O     7.14559   10.25318    7.97699
      H1     6.99743   10.53560    8.87545
       H     6.57412   14.66537    9.26031
       O     5.75852   14.87538    9.75726
      H1     5.13629   15.00535    9.02996
       H     6.25344   12.65600    6.79562
       O     6.64445   13.42251    6.45924
      H1     5.95309   14.09483    6.57863
       H    11.55611   14.68538    9.88664
       O    11.70672   13.93606   10.49474
      H1    10.93886   13.35599   10.45111

