36
frame 4 | Written by MDAnalysis XYZWriter (release 2.4.3)
       H    -6.00649   14.56721  -15.29356
       O    -5.40076   14.70368  -16.05421
      H1    -5.49712   15.58486  -16.39349
       H    -2.31054   17.47654  -13.08922
       O    -2.06680   18.19304  -13.66286
      H1    -1.89243   17.76756  -14.52182
       H     0.97534   15.64133  -19.78237
       O     0.95697   15.59879  -18.81171
      H1     0.33598   14.86204  -18.66714
       H    -3.95196   17.14898  -18.94502
       O    -4.01145   16.57384  -18.19503
      H1    -4.16615   15.68320  -18.56348
       H    -0.73010   16.79543  -16.16336
       O    -1.69728   16.69059  -16.18159
      H1    -1.91537   16.53742  -17.08600
       H    -6.08620   17.98991  -18.90097
       O    -6.48806   18.63104  -18.30048
      H1    -6.75342   19.29033  -18.93949
       H    -7.17385   18.03067  -16.45239
       O    -7.30521   17.42256  -15.71650
      H1    -8.11954   17.82880  -15.32955
       H    -1.60363   13.45345  -18.48121
       O    -0.67921   13.64545  -18.21553
      H1    -0.84050   13.89019  -17.26455
       H    -7.63668   13.30353  -18.14667
       O    -6.64609   13.09384  -17.99166
      H1    -6.44092   13.81450  -17.33574
       H    -3.45123   14.27399  -16.52297
       O    -2.87473   13.51369  -16.68010
      H1    -3.39173   12.82178  -17.04766
       H     0.51104   17.86249  -18.53991
       O     0.88416   18.72399  -18.46299
      H1     0.55045   19.13984  -19.28387
       H    -5.79995   14.84110  -19.90792
       O    -4.99099   14.39489  -19.59048
      H1    -5.44719   13.83281  -18.94012

