36
frame 3 | Written by MDAnalysis XYZWriter (release 2.4.3)
       H    -6.05903   12.30927   16.34466
       O    -5.19603   12.61944   16.63075
      H1    -5.31957   13.54454   16.86547
       H    -8.96521   14.65121   14.54224
       O    -8.08753   14.32413   14.34190
      H1    -8.23218   13.38506   14.54097
       H    -9.09783   14.29160   17.57767
       O    -9.16409   15.12989   17.15169
      H1    -8.96799   15.77329   17.83087
       H   -12.78359   14.82137   16.51355
       O   -13.02710   15.21585   15.68678
      H1   -14.00268   15.28786   15.66764
       H    -8.03079   16.07129   19.95256
       O    -7.12160   15.81155   19.87906
      H1    -6.94156   16.20917   19.00686
       H   -11.73173   18.16480   18.29145
       O   -12.34677   17.45222   17.89405
      H1   -13.23505   17.80104   17.71413
       H   -11.34198   16.69710   15.22249
       O   -10.42366   16.70906   14.86915
      H1   -10.00314   16.75280   15.74280
       H   -11.49920   13.10767   17.48251
       O   -11.71484   13.93849   17.96005
      H1   -10.97895   14.48963   17.62508
       H    -7.25774   15.19417   16.94501
       O    -6.33686   15.09083   17.24677
      H1    -5.73253   15.23812   16.49393
       H    -7.97600   17.72789   14.22540
       O    -7.80019   18.20294   15.00538
      H1    -8.64410   18.71916   15.15607
       H    -7.72358   17.83391   16.70459
       O    -7.80605   17.96371   17.73786
      H1    -7.01161   18.56343   17.82135
       H    -9.44404   12.82310   19.59781
       O    -8.66255   12.45383   19.07200
      H1    -8.65040   11.52460   19.31573

