36
frame 4 | Written by MDAnalysis XYZWriter (release 2.4.3)
       H    -5.74245  -18.18281   12.40092
       O    -4.82139  -18.25890   12.00661
      H1    -4.31779  -18.52884   12.78435
       H    -4.52837  -15.77257   16.14069
       O    -4.29559  -16.32410   15.34593
      H1    -4.84142  -15.94731   14.62650
       H    -8.58628  -14.86166   16.44710
       O    -8.07385  -15.53982   16.00097
      H1    -7.85912  -15.18344   15.12261
       H    -8.42512  -12.18361   11.34424
       O    -8.00549  -12.95376   11.68282
      H1    -7.17914  -12.52927   12.16401
       H    -6.76160  -17.91010   14.62109
       O    -7.02215  -17.99141   13.72857
      H1    -7.65696  -18.70284   13.75695
       H    -7.71341  -14.88243   12.62651
       O    -7.02531  -15.26664   13.21177
      H1    -7.21537  -16.27079   13.27475
       H   -10.42685  -14.33964    9.15165
       O   -10.23547  -15.05693    9.75697
      H1   -10.77698  -15.80243    9.54289
       H   -11.44379  -12.29541   14.99886
       O   -10.71913  -12.80061   14.67742
      H1   -10.62662  -12.55444   13.78612
       H    -4.12850  -14.07473   11.95466
       O    -4.43550  -13.84987   12.87021
      H1    -5.23786  -14.42019   12.94741
       H    -5.34033  -12.38900   13.16263
       O    -6.07943  -11.80684   13.02963
      H1    -6.17787  -11.34509   13.87103
       H   -11.13282  -14.19832   11.32190
       O   -11.65154  -13.52719   11.76581
      H1   -12.43091  -14.05400   12.18646
       H    -8.46103  -15.05967    9.34208
       O    -7.76966  -15.17299    8.67099
      H1    -6.93345  -15.18340    9.08436

