36
frame 3 | Written by MDAnalysis XYZWriter (release 2.4.3)
       H   -15.09905   14.36849  -13.69059
       O   -15.65936   14.57952  -12.92012
      H1   -16.47427   14.08393  -13.10655
       H   -18.31216   17.84577  -13.82299
       O   -18.06503   16.90220  -13.90972
      H1   -17.73482   16.87741  -14.82430
       H   -15.27706   17.67339  -18.34378
       O   -15.51828   17.21403  -17.50598
      H1   -15.78239   16.31264  -17.72885
       H   -17.17635   12.38412  -13.71636
       O   -17.77089   13.14173  -13.85761
      H1   -18.56654   12.78333  -13.50239
       H   -17.32273   12.87837  -11.43500
       O   -16.68923   12.36410  -10.92800
      H1   -16.55616   13.02942  -10.10324
       H   -14.42540   16.87355  -11.65640
       O   -14.37137   16.23953  -10.89331
      H1   -14.98099   15.55655  -11.18238
       H   -17.72906   13.26135  -15.41216
       O   -17.69138   13.16094  -16.37814
      H1   -17.59545   12.21010  -16.53177
       H   -18.56754   17.38287  -17.30380
       O   -17.97071   17.84699  -16.68444
      H1   -17.02615   17.81703  -16.97201
       H   -19.04032   17.58078   -9.52674
       O   -19.11435   17.10294   -8.69398
      H1   -18.94958   17.67762   -7.90493
       H   -19.48506   19.77013  -10.78488
       O   -18.72716   19.29203  -10.34785
      H1   -18.89287   19.61524   -9.41295
       H   -18.73094   19.15883  -15.76908
       O   -19.19175   19.90775  -15.26529
      H1   -19.68768   19.49987  -14.49594
       H   -15.70920   16.95921  -13.26248
       O   -14.96912   17.63402  -13.22764
      H1   -15.33152   18.48706  -12.85069

