36
frame 3 | Written by MDAnalysis XYZWriter (release 2.4.3)
       H    -6.71377   -8.68536    9.62387
       O    -7.62567   -8.48487    9.83512
      H1    -8.08472   -9.28023   10.03426
       H    -9.83670   -8.38791   16.26749
       O    -9.62543   -9.29354   15.93264
      H1    -9.64397   -9.26891   14.97928
       H   -10.45064  -10.42443   10.55515
       O    -9.66809  -10.33180    9.96879
      H1   -10.02985  -10.44018    9.07591
       H   -12.72146  -10.11575   11.46318
       O   -11.93942  -10.48617   11.83196
      H1   -12.13920  -11.39479   11.86775
       H   -11.96620  -12.65061   16.01321
       O   -11.56168  -13.29126   15.44573
      H1   -11.45037  -12.86312   14.59846
       H   -13.46044  -12.10939   13.23561
       O   -14.13073  -11.54220   13.60179
      H1   -14.91866  -11.53487   13.05911
       H   -12.64741   -6.66057   11.32588
       O   -13.10923   -7.11496   12.01778
      H1   -13.42602   -6.41684   12.60176
       H   -14.02878   -8.46021   11.30424
       O   -14.28204   -9.32860   10.85198
      H1   -14.51555   -8.94834    9.97724
       H    -8.02886   -7.71974   11.41150
       O    -8.09747   -7.29268   12.30779
      H1    -9.03030   -7.17478   12.47750
       H   -11.17999   -7.13837   13.32116
       O   -10.76062   -6.33082   13.03617
      H1   -11.23038   -5.61599   13.48505
       H    -9.31392   -9.39621   12.62400
       O   -10.02162   -9.21770   13.24257
      H1   -10.78896   -9.53718   12.69541
       H   -13.84720   -9.89705   14.05551
       O   -13.79305   -8.91650   14.23433
      H1   -13.56993   -8.36871   13.45699

