36
frame 4 | Written by MDAnalysis XYZWriter (release 2.4.3)
       H    18.97511   17.34883  -17.52544
       O    19.85736   17.23581  -17.82787
      H1    19.78136   17.35414  -18.79439
       H    13.45942   14.15047  -17.65583
       O    14.07389   14.76708  -18.08834
      H1    14.22685   15.54802  -17.48968
       H    16.07613   14.99660  -13.05535
       O    16.85153   15.39405  -12.56567
      H1    16.80377   14.85775  -11.78208
       H    17.61513   16.61500  -16.13859
       O    17.31059   17.33879  -16.62845
      H1    16.34886   17.24610  -16.84216
       H     9.45871   19.89784  -15.16888
       O     9.88189   19.30097  -14.52180
      H1    10.68329   19.80657  -14.22009
       H    16.47170   17.04583  -12.31577
       O    15.97742   17.86684  -12.01617
      H1    15.11012   17.56584  -11.65401
       H    18.77449   18.80576  -12.67724
       O    19.37793   18.49877  -13.44121
      H1    18.95602   17.64851  -13.71787
       H    15.55505   18.84181  -13.53568
       O    15.03426   19.05467  -14.35704
      H1    15.61611   19.36166  -15.09117
       H    13.85590   17.28500  -14.23241
       O    13.07373   16.84246  -13.87867
      H1    12.42913   16.55621  -14.56424
       H    13.41838   19.55168  -13.46393
       O    12.58807   19.30283  -13.05100
      H1    12.45724   18.38742  -13.24530
       H    20.19459   15.88406  -14.74272
       O    19.25677   15.95818  -15.06886
      H1    18.84287   15.13811  -14.77816
       H    15.01344   17.65199  -15.81448
       O    14.76875   17.12180  -16.62142
      H1    13.93796   17.47746  -17.00090

