36
frame 0 | Written by MDAnalysis XYZWriter (release 2.4.3)
       H   -13.64542   11.23461    8.96952
       O   -14.51755   10.99662    8.52547
      H1   -15.02229   11.83210    8.45226
       H   -11.01769   16.62754    9.46773
       O   -10.41792   17.02495    8.84218
      H1    -9.55903   17.07034    9.31356
       H    -9.01682   13.26784    7.20109
       O    -8.68774   14.10096    7.52878
      H1    -9.09034   14.73148    6.92293
       H   -13.04925   15.51270    4.31937
       O   -12.60988   16.36405    4.16480
      H1   -11.83732   16.34076    4.72611
       H   -14.85328   15.53700    5.79511
       O   -15.43596   15.29461    5.07095
      H1   -15.70960   14.35609    5.14759
       H   -14.63845   17.03167    8.72742
       O   -14.57777   16.23011    8.11096
      H1   -15.15799   15.59322    8.61155
       H   -10.24742   16.34266    7.07482
       O   -10.24922   15.82325    6.22746
      H1    -9.86436   16.38004    5.55564
       H   -10.90440   11.94680    4.11518
       O   -10.62171   12.60050    4.77106
      H1   -10.17008   12.01944    5.36902
       H   -15.49922   12.13890    5.60422
       O   -16.15615   12.80273    5.68361
      H1   -17.04630   12.43550    5.43971
       H   -12.92296   11.76111    5.91013
       O   -13.64081   11.08110    6.01037
      H1   -13.97159   10.98399    6.90820
       H   -12.80100   14.82387    7.24446
       O   -12.47368   14.21124    6.60013
      H1   -11.69661   14.62628    6.22739
       H   -16.57424   13.72284    8.92721
       O   -15.75352   13.54349    8.39826
      H1   -16.06191   13.34898    7.46490

