36
frame 3 | Written by MDAnalysis XYZWriter (release 2.4.3)
       H   -15.57128   -5.61763   10.38646
       O   -16.22739   -6.27517   10.21278
      H1   -16.94114   -5.74808    9.84195
       H   -14.22272  -11.42338   10.19433
       O   -14.07727  -12.05917    9.44812
      H1   -14.53793  -11.68192    8.68563
       H   -14.21139   -7.88046    8.05589
       O   -15.17478   -8.06476    8.22864
      H1   -15.53526   -7.20587    8.60011
       H   -11.81618   -4.68946    9.29518
       O   -11.51437   -5.60856    9.47261
      H1   -10.58147   -5.58112    9.22740
       H   -16.20323   -9.09581    5.42259
       O   -16.16945   -9.56344    6.25705
      H1   -16.12557   -8.77343    6.91508
       H   -12.64741   -6.66057   11.32588
       O   -13.10923   -7.11496   12.01778
      H1   -13.42602   -6.41684   12.60176
       H   -13.58935   -5.80456    4.46671
       O   -14.22157   -5.12647    4.61741
      H1   -14.10421   -4.91647    5.56774
       H   -14.02878   -8.46021   11.30424
       O   -14.28204   -9.32860   10.85198
      H1   -14.51555   -8.94834    9.97724
       H   -12.22946   -6.67218    8.32156
       O   -12.66327   -7.12600    7.58655
      H1   -11.86098   -7.32467    7.04130
       H   -14.77748  -10.61150    6.58357
       O   -14.17718  -11.36296    6.75527
      H1   -13.27432  -11.08176    6.83662
       H   -15.67209   -5.98027    6.65613
       O   -16.43212   -6.35399    6.23913
      H1   -16.21979   -6.87995    5.48142
       H   -13.60460   -5.50373    7.56992
       O   -14.00158   -4.69175    7.33354
      H1   -14.19668   -4.26807    8.19395

