36
frame 3 | Written by MDAnalysis XYZWriter (release 2.4.3)
       H    17.11740  -12.58671   -5.58742
       O    16.29004  -12.27526   -5.97171
      H1    16.40240  -11.31642   -6.14375
       H    15.84983  -14.10347    0.73249
       O    16.05863  -13.25811    0.32489
      H1    16.41939  -13.63942   -0.49596
       H    18.17094  -12.31347    0.90915
       O    18.78708  -11.59786    0.68261
      H1    19.22725  -11.48309    1.53881
       H    17.26948  -10.29075    0.82034
       O    16.89134   -9.40594    0.90543
      H1    16.34457   -9.32779    1.68929
       H    15.64634  -11.76733   -4.11126
       O    15.45636  -11.59441   -3.18046
      H1    15.25073  -10.68198   -3.00510
       H    18.88291   -6.50611   -0.79985
       O    18.17060   -5.86738   -1.02889
      H1    18.49014   -4.99150   -0.59987
       H    16.76609  -14.59644   -2.47717
       O    17.02171  -13.74095   -2.16985
      H1    16.49294  -13.07501   -2.62759
       H    18.76241   -8.97280   -3.26225
       O    18.43394   -8.36579   -3.91312
      H1    18.31441   -7.54887   -3.38207
       H    19.44225  -13.16521   -4.71461
       O    18.64874  -12.74893   -4.23223
      H1    18.49354  -13.39137   -3.55218
       H    15.70961   -8.67376   -6.29493
       O    16.48330   -9.22021   -6.13221
      H1    16.75422   -8.94358   -5.24122
       H    16.60043   -6.92340   -0.61352
       O    15.84190   -7.45178   -0.71197
      H1    16.08752   -8.26063   -0.27605
       H    18.92356  -11.35689   -2.77464
       O    19.15697  -10.58358   -2.30956
      H1    19.12812  -10.80330   -1.37622

