36
frame 4 | Written by MDAnalysis XYZWriter (release 2.4.3)
       H   -10.25415   19.67933   20.19014
       O    -9.50977   19.46769   19.69465
      H1    -9.72404   19.57952   18.77614
       H    -9.33185   14.20543   17.83877
       O   -10.10876   14.56454   17.43796
      H1   -10.51393   15.27758   18.02386
       H   -13.76976   14.46014   16.39970
       O   -13.94507   14.83491   15.55555
      H1   -14.26156   15.74792   15.54122
       H   -12.78947   19.43867   19.92079
       O   -13.04994   19.05560   19.09311
      H1   -12.90559   19.67109   18.32301
       H   -12.15764   17.34134   18.64084
       O   -11.83645   16.55926   18.16587
      H1   -11.44650   16.98030   17.44226
       H   -15.10376   17.91921   16.61283
       O   -14.70437   17.72198   15.77223
      H1   -13.91351   18.32078   15.69869
       H    -8.98943   18.63075   16.81803
       O    -9.78062   19.18922   16.84243
      H1    -9.41777   20.03851   16.98463
       H   -12.54898   12.49516   16.99440
       O   -12.69700   13.35277   17.46319
      H1   -11.80474   13.78324   17.38070
       H   -16.44702   18.71168   18.56831
       O   -15.71574   18.11948   18.37987
      H1   -14.89215   18.53422   18.57097
       H   -15.85174   18.93868   14.65705
       O   -16.23737   19.67439   14.17223
      H1   -15.51068   20.12610   13.72712
       H   -15.14766   14.85267   19.56302
       O   -15.98001   14.33616   19.35184
      H1   -16.52620   14.81168   18.68850
       H   -10.95150   18.61038   15.13927
       O   -11.57936   18.66345   14.36797
      H1   -11.69545   19.59981   14.18871

