36
frame 3 | Written by MDAnalysis XYZWriter (release 2.4.3)
       H    -8.05250   11.00139   -4.55628
       O    -7.88466   11.91758   -4.99617
      H1    -8.59236   11.96693   -5.64442
       H    -8.96006   10.76770   -1.19529
       O    -9.85912   10.90012   -0.90448
      H1   -10.30109   10.08756   -1.09937
       H    -8.77178   17.06726   -1.78459
       O    -7.98461   16.59600   -1.60441
      H1    -8.13298   15.75786   -2.07607
       H    -4.86592   11.82561   -4.60271
       O    -5.28629   12.70064   -4.83482
      H1    -6.14187   12.48553   -5.18601
       H    -9.80955   12.77908   -0.45940
       O   -10.07834   13.69982   -0.44937
      H1    -9.70189   14.04498   -1.28691
       H   -11.37166   12.59150   -4.02886
       O   -11.58916   13.44730   -3.62156
      H1   -12.28238   13.30810   -2.97033
       H    -6.78680   11.32780   -1.72414
       O    -6.96418   10.55786   -1.16988
      H1    -6.80776    9.70704   -1.60429
       H    -9.76864   11.10563   -7.38421
       O    -9.73931   12.04445   -7.02428
      H1   -10.52886   12.46407   -7.30866
       H    -6.04035   12.91378   -3.15598
       O    -6.55956   12.97148   -2.32405
      H1    -6.06557   13.56690   -1.77731
       H   -11.76524   13.43767   -0.17606
       O   -12.68209   13.15871   -0.04215
      H1   -13.16639   13.98777   -0.15965
       H   -10.93430   11.35820   -5.74619
       O   -11.57594   11.09570   -5.09338
      H1   -11.19298   10.22163   -4.85333
       H    -9.41182   13.73265   -3.44467
       O    -8.85154   14.20447   -2.80248
      H1    -7.94897   13.76265   -2.79442

