36
frame 3 | Written by MDAnalysis XYZWriter (release 2.4.3)
       H    -5.67756   -8.19898    7.33727
       O    -6.03515   -7.94303    6.46035
      H1    -6.92329   -8.40474    6.47351
       H    -6.71377   -8.68536    9.62387
       O    -7.62567   -8.48487    9.83512
      H1    -8.08472   -9.28023   10.03426
       H    -5.48095   -6.57584   12.59178
       O    -5.77763   -5.70695   12.25953
      H1    -6.49408   -6.02091   11.72745
       H    -2.29109   -6.66262    9.79133
       O    -2.62079   -7.50992   10.01578
      H1    -2.33091   -8.11047    9.29112
       H    -3.15636  -10.18232   12.76997
       O    -2.60642  -10.78296   12.22767
      H1    -3.12296  -10.83268   11.47499
       H    -4.29625   -8.65483   12.76264
       O    -5.11037   -8.48454   12.17906
      H1    -4.87380   -8.41013   11.18775
       H    -3.04134   -7.17755   12.21382
       O    -2.66635   -6.78935   13.01902
      H1    -2.54632   -5.81660   12.77776
       H    -5.19564  -12.28795   12.69169
       O    -5.41803  -11.53872   12.14401
      H1    -5.81659  -10.88185   12.72181
       H    -8.02886   -7.71974   11.41150
       O    -8.09747   -7.29268   12.30779
      H1    -9.03030   -7.17478   12.47750
       H    -4.66058   -7.52757    9.04198
       O    -5.22853   -8.27846    8.93002
      H1    -4.72503   -9.07516    9.11159
       H    -4.64287   -9.70772   14.86612
       O    -3.89458   -9.12857   14.55046
      H1    -4.12094   -8.28038   14.99888
       H    -4.67909  -10.92564   10.51921
       O    -4.19840  -10.77753    9.74329
      H1    -4.42075  -11.58714    9.19204

