36
frame 3 | Written by MDAnalysis XYZWriter (release 2.4.3)
       H    -5.67756   -8.19898    7.33727
       O    -6.03515   -7.94303    6.46035
      H1    -6.92329   -8.40474    6.47351
       H    -6.71377   -8.68536    9.62387
       O    -7.62567   -8.48487    9.83512
      H1    -8.08472   -9.28023   10.03426
       H   -10.45064  -10.42443   10.55515
       O    -9.66809  -10.33180    9.96879
      H1   -10.02985  -10.44018    9.07591
       H    -8.40030  -12.31673   10.66814
       O    -7.89599  -12.70903   11.35691
      H1    -7.11670  -12.21042   11.51843
       H    -5.48095   -6.57584   12.59178
       O    -5.77763   -5.70695   12.25953
      H1    -6.49408   -6.02091   11.72745
       H    -4.29625   -8.65483   12.76264
       O    -5.11037   -8.48454   12.17906
      H1    -4.87380   -8.41013   11.18775
       H    -7.92986  -10.25341    6.05703
       O    -8.34752   -9.52691    6.61450
      H1    -8.86757   -9.07382    5.89754
       H    -5.19564  -12.28795   12.69169
       O    -5.41803  -11.53872   12.14401
      H1    -5.81659  -10.88185   12.72181
       H    -8.02886   -7.71974   11.41150
       O    -8.09747   -7.29268   12.30779
      H1    -9.03030   -7.17478   12.47750
       H    -4.66058   -7.52757    9.04198
       O    -5.22853   -8.27846    8.93002
      H1    -4.72503   -9.07516    9.11159
       H    -8.31688   -6.42041    8.30821
       O    -9.01457   -5.78594    8.09196
      H1    -9.51585   -6.15745    7.34331
       H    -4.67909  -10.92564   10.51921
       O    -4.19840  -10.77753    9.74329
      H1    -4.42075  -11.58714    9.19204

