36
frame 3 | Written by MDAnalysis XYZWriter (release 2.4.3)
       H    18.88329    1.01293   -9.73016
       O    19.67134    1.32848   -9.22506
      H1    19.32622    1.48016   -8.32705
       H    13.84897    0.53265   -9.34249
       O    13.06203    1.04040   -9.61576
      H1    12.44464    0.37104   -9.87763
       H    18.05464   -0.92478  -11.61353
       O    18.56135   -1.67182  -12.04041
      H1    19.41017   -1.30481  -12.34863
       H    14.34913   -2.35634  -11.68248
       O    14.29330   -2.89143  -10.90604
      H1    13.28403   -2.95757  -10.71560
       H    17.73423    3.12784  -11.56239
       O    17.00319    3.46920  -11.02803
      H1    16.31084    3.87509  -11.56759
       H    16.17374   -1.76271   -8.30125
       O    15.42221   -1.36608   -8.69258
      H1    15.21510   -1.91721   -9.46262
       H    14.72282    1.44368  -13.61718
       O    14.28139    1.22202  -12.75463
      H1    13.39733    1.70485  -12.73324
       H    15.93401    2.88060   -7.85405
       O    16.54053    2.30095   -8.31862
      H1    16.60247    2.75757   -9.17681
       H    14.66445   -0.05766   -7.38015
       O    14.50688    0.60207   -6.71766
      H1    13.53294    0.66423   -6.82337
       H    16.41014    0.99363  -10.64237
       O    17.04422    0.28420  -10.33928
      H1    16.48920   -0.19937   -9.71731
       H    14.74545   -1.84141  -13.39906
       O    13.99211   -1.41435  -13.10198
      H1    14.10884   -0.50068  -12.76211
       H    18.21106    3.01209  -13.66817
       O    18.56467    2.37451  -13.05410
      H1    19.38679    2.13769  -13.44038

