36
frame 4 | Written by MDAnalysis XYZWriter (release 2.4.3)
       H    16.25074   -5.24590   -5.24662
       O    16.51487   -5.04990   -4.32876
      H1    15.87765   -5.24620   -3.68283
       H    16.83377   -5.54476   -7.14458
       O    15.96340   -5.68831   -6.68851
      H1    15.46642   -4.91775   -7.08210
       H    13.86290   -8.13541   -5.17225
       O    14.00492   -7.87899   -6.09644
      H1    14.58922   -7.08378   -6.13267
       H    18.75992   -4.16571   -7.58442
       O    18.51317   -5.09923   -7.60280
      H1    19.19677   -5.54763   -7.05888
       H    17.03905   -2.88586   -4.24836
       O    17.73272   -2.47208   -4.75577
      H1    17.41899   -1.55158   -4.77057
       H    12.78383   -3.51277   -6.51938
       O    13.57928   -2.89178   -6.63162
      H1    13.10266   -2.07742   -6.88140
       H    18.35415   -8.07901   -3.70197
       O    17.91312   -7.51480   -4.38683
      H1    17.51682   -6.78413   -3.97102
       H    15.88708   -7.04713  -10.59149
       O    15.07408   -6.63547  -10.25803
      H1    14.46530   -7.32573  -10.04610
       H    18.09743   -6.33615   -8.51335
       O    18.09214   -6.97528   -9.21545
      H1    18.87428   -6.68901   -9.68096
       H    15.91232   -8.93002   -6.35656
       O    16.77258   -9.25562   -6.01085
      H1    17.11782   -8.50007   -5.48269
       H    17.26657   -2.25742   -6.51262
       O    17.34327   -2.34447   -7.52492
      H1    16.90167   -3.15119   -7.78254
       H    15.23471   -4.97441   -9.39767
       O    15.56204   -4.03956   -9.32624
      H1    15.04894   -3.58006  -10.03472

