36
frame 0 | Written by MDAnalysis XYZWriter (release 2.4.3)
       H    -0.80388   -6.95582    5.57318
       O    -0.45933   -7.88447    5.63867
      H1    -1.07527   -8.27264    6.30322
       H    -6.80873   -6.78044   11.35909
       O    -6.35876   -6.06508   10.92118
      H1    -6.01321   -6.51679   10.13806
       H    -1.74497   -9.77862   10.15797
       O    -1.23008   -8.94157   10.37032
      H1    -0.33136   -9.24838   10.16116
       H    -3.91283   -6.72848    7.48408
       O    -3.75443   -7.35148    8.15057
      H1    -3.28274   -8.05764    7.76543
       H    -3.79828   -8.31339   12.43515
       O    -3.89011   -8.06078   11.49692
      H1    -3.08596   -7.76174   11.21724
       H    -2.47009   -6.02018    9.57934
       O    -1.99946   -5.35612   10.14784
      H1    -2.67024   -4.70663   10.35062
       H    -4.86558   -8.63499    8.73018
       O    -5.62724   -9.23744    8.71257
      H1    -5.29484  -10.09190    9.05681
       H    -3.23481   -2.47862   11.10711
       O    -3.79829   -3.19444   10.84999
      H1    -4.06932   -3.07632    9.92307
       H     0.67946   -4.45229   11.57318
       O     0.65266   -4.15393   12.48790
      H1     0.61562   -4.93870   13.09777
       H    -3.54710   -5.00452    5.80402
       O    -2.73795   -4.86600    6.40066
      H1    -2.38200   -4.01101    6.27511
       H     0.20356   -5.63725   10.23873
       O     0.92867   -5.09552    9.98492
      H1     0.68729   -4.53524    9.28605
       H    -4.76921   -1.67051    7.71827
       O    -4.65658   -2.46400    8.25798
      H1    -4.41969   -3.21854    7.71627

