36
frame 3 | Written by MDAnalysis XYZWriter (release 2.4.3)
       H    10.28092   -7.43867  -16.25806
       O    10.39706   -7.60338  -17.19438
      H1    10.26905   -6.73581  -17.61315
       H    14.11281   -4.87276  -13.51747
       O    13.96874   -4.57416  -14.37571
      H1    12.96469   -4.61981  -14.62903
       H    10.43164   -4.44053  -15.49943
       O    11.27024   -4.87354  -15.38098
      H1    10.99672   -5.67488  -14.92181
       H    10.80507   -3.50906  -13.02933
       O     9.81977   -3.48140  -13.16597
      H1     9.45745   -2.55795  -13.05524
       H    12.52570   -5.62309  -18.66095
       O    13.45994   -5.82853  -18.56146
      H1    13.90742   -5.75025  -19.43975
       H     9.01261   -0.10532  -13.50798
       O     9.20183   -0.91398  -14.02951
      H1    10.15731   -0.81344  -14.20574
       H     8.90185   -2.45052  -15.26980
       O     8.76318   -3.23128  -15.86193
      H1     8.02281   -3.67748  -15.33844
       H     9.57006   -4.95198  -18.70730
       O    10.42306   -5.41946  -18.83772
      H1    10.15658   -5.91328  -19.61851
       H    11.29398   -7.58150  -13.83516
       O    10.47413   -7.60967  -14.40499
      H1    10.07465   -8.46975  -14.18614
       H    11.29639   -4.03214  -18.39617
       O    11.51459   -3.15129  -18.03819
      H1    11.61423   -3.33294  -17.08399
       H     9.26767   -4.79236  -12.25705
       O     8.90072   -5.30643  -11.49587
      H1     8.24315   -4.79040  -11.11067
       H     8.16817   -3.16539  -17.72818
       O     7.97645   -3.75255  -18.47501
      H1     7.91553   -3.23455  -19.29214

