36
frame 4 | Written by MDAnalysis XYZWriter (release 2.4.3)
       H    -4.51677    2.60821   -2.29570
       O    -4.14985    2.02898   -2.97349
      H1    -4.79466    2.15652   -3.65576
       H    -3.06042    5.29347    0.29345
       O    -2.87904    4.59207   -0.34032
      H1    -2.54415    3.91792    0.24761
       H     0.55751    2.86068    0.59642
       O     0.74481    2.76328   -0.38467
      H1     0.53212    1.79497   -0.46306
       H    -3.05525    1.64937    3.61569
       O    -3.76969    2.29709    3.65861
      H1    -4.49440    2.01157    3.09141
       H    -5.40079    2.21127    0.79821
       O    -5.75303    1.68070    1.59680
      H1    -5.60731    0.70637    1.28628
       H    -0.95978   -0.43731   -1.09691
       O    -0.20389    0.14768   -1.32951
      H1    -0.39311    0.76823   -2.07914
       H    -4.58672   -0.85266   -0.03493
       O    -5.15075   -0.93978    0.82313
      H1    -6.04021   -1.18587    0.51815
       H    -2.16663   -2.26519    0.89499
       O    -1.57760   -2.24420    0.09405
      H1    -2.13087   -2.78845   -0.45417
       H    -2.65603    1.44685    0.31062
       O    -2.39259    2.07600    0.99619
      H1    -3.16142    2.13355    1.60090
       H    -5.75473    3.91004   -0.24740
       O    -5.13957    3.25919   -0.60673
      H1    -4.27729    3.70533   -0.50099
       H    -0.70584    2.19936    2.05777
       O     0.13016    2.29444    2.52451
      H1     0.20756    1.40750    2.90730
       H    -3.25474   -0.98928   -1.62953
       O    -3.44018   -0.16511   -1.13188
      H1    -3.90872    0.31394   -1.81207

