36
frame 4 | Written by MDAnalysis XYZWriter (release 2.4.3)
       H    16.38526  -11.49213   14.76877
       O    16.28388  -12.27962   15.37420
      H1    15.67708  -12.00868   16.05026
       H    19.03081  -12.89938   11.99400
       O    18.91241  -12.49822   11.05502
      H1    19.74168  -12.70104   10.54744
       H    19.56273  -11.77415   16.29484
       O    19.03138  -11.65605   17.09089
      H1    18.14330  -12.02378   16.91306
       H    15.24347   -7.17508   13.46252
       O    15.92438   -6.51244   13.24417
      H1    15.50495   -5.70096   13.50241
       H    15.51235  -11.25375   11.57793
       O    14.67073  -11.71118   11.80130
      H1    14.37168  -12.01931   10.89630
       H    17.90273  -13.81504   10.26910
       O    17.30682  -14.50171   10.02488
      H1    17.19548  -15.11890   10.82623
       H    16.36436  -14.02326   14.71917
       O    16.55454  -14.86039   14.26304
      H1    17.17309  -15.41661   14.73487
       H    17.95551   -9.96884   14.30421
       O    17.95223  -10.77744   13.74987
      H1    18.08585  -10.36565   12.89811
       H    18.53792   -6.84315   11.32284
       O    18.54090   -6.57809   12.25249
      H1    17.62075   -6.40202   12.48968
       H    18.59018   -7.60170   14.12475
       O    18.30291   -8.19703   14.85120
      H1    19.13557   -8.34915   15.28386
       H    17.43670  -10.99161   10.11166
       O    17.07189  -10.21456   10.65142
      H1    16.28022   -9.93873   10.21373
       H    18.74671   -8.32023    8.93971
       O    18.61284   -8.22285    9.89365
      H1    18.10059   -8.97579   10.28168

