36
frame 3 | Written by MDAnalysis XYZWriter (release 2.4.3)
       H   -18.12477    6.19865    9.45932
       O   -17.87626    6.30830   10.35394
      H1   -18.59037    6.64577   10.93255
       H   -16.09457   12.10222   12.39015
       O   -16.97031   11.94508   12.74615
      H1   -17.57138   12.42074   12.16516
       H   -14.81499    5.26934   14.16832
       O   -14.55889    5.78629   13.39503
      H1   -13.55975    5.69356   13.39769
       H   -18.95481    5.23719   14.77175
       O   -18.00443    5.22038   14.66646
      H1   -17.93932    4.32973   14.30554
       H   -17.54223    6.91797   13.70139
       O   -17.44509    7.88109   13.82337
      H1   -16.65316    8.12794   13.34987
       H   -13.35272   11.05660   13.75302
       O   -12.99934   10.31439   13.21763
      H1   -13.85016    9.86445   13.13506
       H   -13.05397    8.74969   14.55009
       O   -13.00411    8.20014   15.39202
      H1   -13.83631    7.75402   15.38439
       H   -18.05475    8.39622   15.97481
       O   -18.59789    8.75730   16.69672
      H1   -18.51383    9.71115   16.74347
       H   -13.39332   10.40733   11.50504
       O   -13.73441   10.65194   10.65680
      H1   -14.60050   10.25662   10.62195
       H   -14.79521    8.50270   11.79229
       O   -14.96394    8.54179   12.75462
      H1   -14.72600    7.66938   13.07042
       H   -16.17455    5.22754   15.62988
       O   -15.28316    4.82657   15.83871
      H1   -15.45297    3.99482   16.26467
       H   -16.87419   11.22640   10.55559
       O   -16.37620   10.95287    9.77181
      H1   -15.90906   11.76541    9.42144

