36
frame 5 | Written by MDAnalysis XYZWriter (release 2.4.3)
       H   -11.71505   -7.33491   17.25001
       O   -12.65941   -7.47623   17.21614
      H1   -12.96174   -7.33256   18.10431
       H   -17.75952   -9.15695   14.06959
       O   -17.28392   -9.76732   14.64722
      H1   -16.36521   -9.68197   14.27343
       H   -17.72534   -6.28500   14.61257
       O   -18.40649   -5.86965   14.11291
      H1   -18.49985   -6.36765   13.29021
       H   -19.04280   -2.26991   15.37954
       O   -18.42170   -3.01501   15.39641
      H1   -18.56088   -3.55236   16.23956
       H   -19.46416   -5.32722   17.57791
       O   -18.83263   -4.57040   17.59477
      H1   -18.70747   -4.48801   18.56812
       H   -18.63301   -9.42289   16.01275
       O   -19.37752   -9.47900   16.61681
      H1   -19.73837  -10.36694   16.71240
       H   -15.35511   -7.78281   17.92342
       O   -15.67974   -8.55002   17.45034
      H1   -15.11735   -8.79234   16.71197
       H   -13.68616   -6.19348   16.69231
       O   -14.14900   -5.52270   16.19827
      H1   -15.00748   -5.90321   16.13068
       H   -16.73681   -7.32443   16.68214
       O   -16.73559   -6.50670   16.16371
      H1   -17.30892   -5.85295   16.60584
       H   -18.21140   -9.97560   18.69086
       O   -17.47771   -9.79981   19.27938
      H1   -16.86737   -9.37242   18.72224
       H   -14.48138   -4.31935   17.61513
       O   -14.73001   -3.42523   17.99720
      H1   -13.89839   -3.04416   18.25730
       H   -14.26749  -10.19697   13.57000
       O   -14.09780   -9.71679   14.40735
      H1   -13.77197   -8.86536   14.02437

