36
frame 4 | Written by MDAnalysis XYZWriter (release 2.4.3)
       H   -11.37717  -14.38339   14.35960
       O   -11.62698  -15.30521   14.08243
      H1   -12.53653  -15.22719   13.70097
       H   -14.26058  -19.04380   11.67248
       O   -14.42130  -18.21358   12.19307
      H1   -13.53755  -18.03299   12.50075
       H   -14.14392  -12.80286   16.97990
       O   -14.85882  -13.26800   17.49551
      H1   -14.92463  -14.03025   16.88547
       H   -17.85343  -15.52056   11.62701
       O   -17.13892  -15.10734   12.13446
      H1   -17.45021  -14.27408   12.49844
       H   -11.44379  -12.29541   14.99886
       O   -10.71913  -12.80061   14.67742
      H1   -10.62662  -12.55444   13.78612
       H   -15.07407  -12.91484   12.69071
       O   -15.34771  -11.98061   12.74469
      H1   -16.19449  -11.77777   12.32074
       H   -14.34487  -14.89149   12.45555
       O   -14.14957  -14.37910   13.23936
      H1   -14.66038  -14.72549   14.00117
       H   -11.83215  -16.03865   15.62168
       O   -11.87205  -16.45577   16.48985
      H1   -10.94043  -16.91726   16.58946
       H   -11.13282  -14.19832   11.32190
       O   -11.65154  -13.52719   11.76581
      H1   -12.43091  -14.05400   12.18646
       H   -15.71535  -15.32957   11.34072
       O   -14.96390  -15.71578   10.89881
      H1   -14.88878  -16.64279   11.21551
       H   -16.71024  -14.98263   15.40965
       O   -15.75931  -15.11678   15.35193
      H1   -15.57719  -16.03750   15.55177
       H   -14.91719  -10.79784   13.83690
       O   -14.61180  -10.20034   14.56359
      H1   -13.99065   -9.52514   14.32098

