36
frame 4 | Written by MDAnalysis XYZWriter (release 2.4.3)
       H     0.66069    9.36707    5.75779
       O     0.72935    9.84856    6.64708
      H1     1.53014   10.39583    6.65432
       H     3.30076   15.01503    6.76952
       O     3.73739   15.37467    7.60018
      H1     3.73476   16.30835    7.31280
       H     1.20320   18.74538    3.94422
       O     1.14684   17.79752    3.94333
      H1     1.99042   17.39859    3.83238
       H     3.58272   11.45290    7.39570
       O     2.72390   11.77570    7.20802
      H1     2.19343   11.66129    8.01321
       H    -0.62063   13.12034    8.52429
       O    -0.19902   13.98691    8.77862
      H1     0.04799   14.38573    7.91395
       H     1.97400   13.75447    4.74996
       O     2.14796   14.11312    5.61624
      H1     2.36917   13.36256    6.16325
       H    -0.72799   15.19229    5.94408
       O     0.00251   15.60899    6.40946
      H1     0.86515   15.12833    6.16737
       H     5.60720   13.86237    3.93668
       O     6.26367   14.39514    4.33855
      H1     6.31899   14.10450    5.23668
       H     2.27787   14.92008   10.36126
       O     2.93273   14.38892    9.86260
      H1     3.09560   14.79751    8.95547
       H     2.23738   12.51947    2.63278
       O     2.68493   11.90532    1.99223
      H1     2.18584   12.02403    1.20668
       H     5.88510   12.63604    7.04722
       O     6.10368   13.54302    6.92589
      H1     5.26018   13.93578    7.23832
       H     0.61951   13.20355    2.79810
       O     1.28339   13.84618    2.98304
      H1     0.92080   14.70565    2.76658

