36
frame 5 | Written by MDAnalysis XYZWriter (release 2.4.3)
       H     1.50322   10.00599   20.28320
       O     0.95237   10.55607   19.67583
      H1     0.67378    9.97297   18.95080
       H    -3.99282   13.46551   18.84139
       O    -3.37345   12.76991   18.47626
      H1    -3.41430   11.93734   18.88887
       H    -1.28887   10.96190   12.37748
       O    -1.60792   10.07875   12.52766
      H1    -1.35976    9.76518   13.39654
       H     2.02422    9.33378   14.78228
       O     2.04636    8.95836   15.70107
      H1     2.80303    9.36594   16.13347
       H    -0.32833   12.86775   18.17639
       O    -0.88110   12.31821   17.56616
      H1    -1.72127   12.39283   18.01472
       H    -0.53389   13.34561   15.88768
       O    -0.36500   13.54451   14.96441
      H1    -0.72570   14.45589   14.81692
       H    -0.46268    6.24993   19.53589
       O    -0.29869    6.21101   18.58699
      H1     0.49291    6.80884   18.49629
       H    -2.18617   10.19803   15.13970
       O    -1.99588    9.24852   15.06293
      H1    -1.34206    9.02726   15.78737
       H    -1.41284   10.17257   19.65001
       O    -2.33872   10.27259   19.57161
      H1    -2.73607    9.41193   19.37854
       H    -2.22077   12.71412   15.51616
       O    -2.83598   12.03051   15.31648
      H1    -3.44413   12.04696   16.06418
       H     0.78063    9.51795   16.66823
       O    -0.02676    9.43747   17.25214
      H1    -0.32794   10.34344   17.42873
       H    -4.88886    8.80837   16.40285
       O    -4.48242    7.95022   16.26046
      H1    -3.55949    8.02450   15.87803

