36
frame 5 | Written by MDAnalysis XYZWriter (release 2.4.3)
       H   -15.65296   16.34392    6.34077
       O   -16.38588   16.26161    5.73109
      H1   -16.10401   16.40619    4.79341
       H   -13.54154   15.71812    7.55010
       O   -14.25154   16.30710    7.75023
      H1   -14.88042   15.92038    8.35606
       H   -10.59277   16.02880    3.25325
       O   -11.05344   16.82090    3.53828
      H1   -11.77054   16.45893    4.08903
       H   -10.52555   15.07874    9.42810
       O   -10.89313   14.90604    8.50679
      H1   -10.25910   15.14550    7.81793
       H   -16.76422   17.59808    2.86038
       O   -15.82612   17.38651    2.96807
      H1   -15.68037   16.62543    2.36185
       H   -11.28758   12.45148    4.14321
       O   -10.68984   13.09448    4.51053
      H1   -10.04953   12.82762    5.19967
       H   -11.39307   17.44231    7.48863
       O   -10.86481   18.22593    7.62788
      H1   -10.73566   18.28891    8.62577
       H   -16.27827   13.67275    5.79307
       O   -15.42151   13.48407    6.19975
      H1   -15.28527   12.56502    6.02908
       H   -15.17745   10.19772    5.21412
       O   -14.52778   10.83343    5.52041
      H1   -13.95502   11.04741    4.75999
       H   -12.44838   14.42773    4.84076
       O   -12.78356   15.28278    5.09614
      H1   -13.65524   14.95658    5.47177
       H   -13.03918   12.46485    8.34026
       O   -13.10654   13.29429    8.90709
      H1   -12.34836   13.85303    8.60071
       H   -17.26655   13.27925    8.49698
       O   -16.39802   12.87757    8.61154
      H1   -15.97451   13.17714    7.74728

