36
frame 4 | Written by MDAnalysis XYZWriter (release 2.4.3)
       H   -10.62913  -11.53056   -9.78306
       O   -10.39641  -11.13910   -8.90508
      H1   -10.87921  -11.66784   -8.29315
       H   -16.97505   -9.58033  -10.44364
       O   -16.43144  -10.37628  -10.51649
      H1   -16.09505  -10.46055   -9.58113
       H   -12.41334   -9.79079   -9.01158
       O   -12.79983   -8.99629   -9.36246
      H1   -12.86003   -8.46765   -8.54617
       H   -16.05850   -9.70199   -5.54649
       O   -15.99387   -9.59833   -4.61058
      H1   -16.89410   -9.43771   -4.29280
       H   -15.11946  -10.86333   -3.94441
       O   -14.50930  -11.36467   -3.36265
      H1   -15.11460  -11.67527   -2.67077
       H   -13.75682  -12.91985   -3.95050
       O   -13.10212  -13.62033   -4.24967
      H1   -12.35743  -13.12713   -4.66739
       H   -11.86302  -11.42749   -6.38514
       O   -12.56326  -10.79158   -6.32127
      H1   -13.39457  -11.20081   -6.63532
       H   -14.57173  -13.25402   -7.75858
       O   -14.54567  -12.38776   -7.25351
      H1   -15.28166  -11.82930   -7.51448
       H   -15.18440  -14.93153  -10.10258
       O   -16.06303  -15.16964  -10.41927
      H1   -16.39707  -14.37563  -10.73596
       H   -12.91048  -15.29327   -9.77213
       O   -13.67594  -15.13228   -9.18368
      H1   -13.59800  -15.42465   -8.29213
       H   -17.20981  -11.18167   -7.33531
       O   -16.55844  -10.44484   -7.39269
      H1   -17.04865   -9.65616   -7.67784
       H   -14.54513  -15.87983   -5.83178
       O   -13.97539  -15.40372   -6.42397
      H1   -14.01133  -14.65395   -5.84444

