36
frame 4 | Written by MDAnalysis XYZWriter (release 2.4.3)
       H     6.33011  -10.42300   -9.17424
       O     6.72220   -9.56028   -8.98931
      H1     6.23971   -8.81322   -9.34086
       H     3.36371  -10.39961   -8.92133
       O     3.43746   -9.55050   -8.48532
      H1     4.24089   -9.13359   -8.85338
       H     5.72525  -12.67632   -9.05894
       O     6.58044  -12.66306   -8.57635
      H1     6.43545  -11.97267   -7.84410
       H     6.68929  -14.37277   -8.05446
       O     6.66569  -15.33572   -7.91837
      H1     6.94732  -15.68902   -8.77179
       H    12.09438  -12.12846   -4.74635
       O    11.30062  -11.57821   -4.69962
      H1    10.77370  -11.74650   -5.47709
       H     5.16602  -10.18386   -3.70244
       O     4.85923  -10.92144   -4.26513
      H1     4.83983  -11.75097   -3.79065
       H     8.57625  -11.73138   -6.49850
       O     9.41333  -12.17689   -6.58151
      H1     9.56534  -12.07497   -7.55687
       H     6.90673   -7.19545   -7.31948
       O     6.04367   -6.86787   -7.14856
      H1     5.65726   -7.20419   -6.29654
       H     6.34637  -10.37785   -5.95678
       O     7.00059  -10.74257   -6.52302
      H1     7.15595  -10.09825   -7.32244
       H     9.33690   -7.20145   -8.74866
       O     8.64698   -7.65674   -8.27224
      H1     8.37054   -8.43467   -8.84896
       H     6.63321   -8.19944   -3.90451
       O     5.74689   -8.11262   -3.60669
      H1     5.79575   -7.84462   -2.67412
       H     8.04860  -15.02949   -6.57918
       O     8.63927  -14.81098   -5.85903
      H1     8.90154  -13.87751   -6.05338

