36
frame 5 | Written by MDAnalysis XYZWriter (release 2.4.3)
       H    13.84184   15.90155    2.29724
       O    13.78275   15.04246    1.89506
      H1    14.71777   14.75227    1.86469
       H    12.97987   12.01289   -4.77773
       O    13.35867   12.70969   -4.23171
      H1    12.73803   13.15851   -3.62752
       H    16.25891   16.60639   -0.63301
       O    17.09613   17.03410   -0.32958
      H1    17.19564   17.82979   -0.85312
       H    11.90137   18.42937   -1.83729
       O    12.18401   18.99063   -2.55279
      H1    13.13241   19.12755   -2.50708
       H    14.23334   15.37833    0.03707
       O    14.04625   16.02878   -0.61126
      H1    13.52560   16.65199   -0.08982
       H    12.79346   15.13885   -1.64881
       O    12.56120   14.32901   -2.16018
      H1    11.64311   14.41249   -2.39947
       H    10.37941   16.44929   -1.85036
       O    10.79960   17.02426   -1.20685
      H1    10.13310   17.78983   -1.08128
       H     9.66287   15.14421   -3.53086
       O     9.88717   14.72070   -2.72058
      H1     9.16236   14.16268   -2.39407
       H    11.72774   12.61855    0.51838
       O    11.30907   12.74089   -0.37940
      H1    11.92683   13.28714   -0.91018
       H    14.89813   13.32815   -2.02471
       O    15.22404   12.55128   -1.65517
      H1    14.66793   11.82959   -1.96011
       H    10.64840   16.15495    0.63309
       O    10.30687   15.83462    1.48197
      H1    10.63265   14.91036    1.61201
       H    13.25932   15.82111   -5.63690
       O    12.56641   16.44514   -5.81022
      H1    12.21214   16.56349   -4.91485

