36
frame 5 | Written by MDAnalysis XYZWriter (release 2.4.3)
       H    -8.05522   -8.52750  -17.58099
       O    -8.06001   -9.43881  -17.94627
      H1    -7.45352   -9.50855  -18.74225
       H    -9.55593   -4.08680  -16.72569
       O    -9.72310   -4.96657  -17.16383
      H1    -9.94873   -4.59138  -18.04594
       H    -7.02955   -5.56694  -20.33515
       O    -7.51036   -5.36453  -19.53151
      H1    -6.98845   -5.82325  -18.84690
       H    -7.04755   -9.78368  -14.82329
       O    -6.37563   -9.97852  -15.51814
      H1    -6.70708   -9.53448  -16.30437
       H    -7.62161   -2.97944  -17.49971
       O    -7.93533   -2.82056  -18.39976
      H1    -7.90727   -3.71838  -18.79828
       H    -3.78108   -6.01343  -15.69472
       O    -4.46184   -5.36276  -15.42079
      H1    -4.09617   -4.60198  -15.91834
       H    -7.48239   -7.31475  -16.63547
       O    -8.32468   -7.45349  -16.21659
      H1    -8.86480   -6.73794  -16.62767
       H    -4.54332   -9.34030  -14.74154
       O    -3.65506   -9.25403  -14.43491
      H1    -3.54462   -8.39124  -13.96933
       H    -3.96173  -10.65338  -18.95025
       O    -4.01445   -9.69581  -18.76799
      H1    -4.37300   -9.30854  -19.57963
       H    -5.58378   -5.81016  -16.77386
       O    -5.97556   -6.56614  -17.26712
      H1    -5.19383   -7.08838  -17.58016
       H    -6.65768   -5.22283  -14.47548
       O    -7.29812   -5.57124  -13.81657
      H1    -8.08447   -5.88520  -14.29275
       H    -2.24336   -7.88739  -17.20293
       O    -2.10784   -6.96359  -16.99273
      H1    -1.36763   -6.68612  -17.53262

