36
frame 4 | Written by MDAnalysis XYZWriter (release 2.4.3)
       H     9.20507    4.76990   -8.85001
       O     9.97043    5.23669   -8.61650
      H1     9.79160    5.42658   -7.69162
       H    12.09552   -0.05201  -10.68106
       O    11.74368   -0.29554   -9.80260
      H1    10.85517   -0.71143   -9.94745
       H     9.68916    1.89316   -7.14200
       O     8.77975    1.53137   -7.37710
      H1     8.67435    1.79513   -8.24136
       H    10.31334    2.84542  -11.01179
       O    10.73239    2.97068  -11.88894
      H1    10.25110    3.67463  -12.32468
       H     5.62180    5.20195   -6.60366
       O     6.16213    4.53841   -7.07206
      H1     6.37652    3.89277   -6.39869
       H     7.14462    1.96732   -9.98888
       O     7.91427    2.51471   -9.78560
      H1     7.64712    3.42661   -9.88219
       H     9.36032    5.23516   -5.04304
       O     9.16404    4.73514   -5.86486
      H1    10.04683    4.48044   -6.15833
       H     9.24153   -0.55314   -7.67117
       O     9.33711   -1.45833   -8.01297
      H1     9.26059   -2.04230   -7.22539
       H    11.63518    2.53937   -5.73346
       O    11.34173    2.18841   -6.63405
      H1    11.80941    2.70688   -7.32020
       H     5.22839   -1.24266   -5.71205
       O     5.70618   -0.73804   -6.38102
      H1     6.34472   -0.15059   -5.90237
       H    12.33234    3.34136  -10.11609
       O    12.09243    2.81087   -9.35221
      H1    12.05248    1.87480   -9.67570
       H     7.67724    2.17836   -6.20416
       O     7.28247    2.77330   -5.47516
      H1     7.92507    3.54622   -5.55173

