36
frame 4 | Written by MDAnalysis XYZWriter (release 2.4.3)
       H    -1.55818   17.00369   -3.64326
       O    -2.09790   16.72708   -2.90540
      H1    -1.95106   17.39112   -2.23290
       H    -1.20132   17.89265   -5.22666
       O    -0.38714   17.33778   -5.08819
      H1     0.18352   17.97567   -4.62406
       H    -9.76785   18.51021   -5.39961
       O    -9.58508   17.63235   -5.19158
      H1    -8.62639   17.47171   -5.31948
       H    -4.56426   16.20732   -5.27323
       O    -4.88892   17.13597   -5.33214
      H1    -4.94000   17.41166   -4.36759
       H    -7.45629   17.26480   -7.96920
       O    -7.30089   17.51230   -8.85742
      H1    -6.39015   17.18285   -9.06873
       H    -7.54783   15.70661   -6.54204
       O    -7.38848   16.60055   -6.28015
      H1    -6.46775   16.71130   -6.07898
       H    -3.83459   17.48786   -2.56615
       O    -4.66552   17.92723   -2.72947
      H1    -5.32755   17.44833   -2.19739
       H    -2.98965   19.41337   -5.26635
       O    -2.73575   18.54677   -5.60467
      H1    -3.51025   17.97380   -5.50855
       H    -2.79397   14.93739   -6.08520
       O    -2.80800   15.05718   -7.03852
      H1    -1.99977   15.53094   -7.29119
       H    -4.26756   13.99777   -3.89368
       O    -3.64340   14.56768   -4.29717
      H1    -3.26171   15.05364   -3.54114
       H    -4.03840   16.31101   -8.66696
       O    -4.36569   16.95839   -9.33992
      H1    -4.03042   17.83592   -9.08950
       H    -3.69645   19.81178   -8.66944
       O    -3.14990   19.05287   -8.45714
      H1    -3.15457   18.91916   -7.50303

