36
frame 4 | Written by MDAnalysis XYZWriter (release 2.4.3)
       H    -5.17148  -17.02120   10.16022
       O    -5.18608  -16.48930    9.38533
      H1    -4.63615  -16.98578    8.80351
       H    -6.35373  -16.80590    5.68082
       O    -5.49441  -16.46873    5.24038
      H1    -5.91310  -15.63875    4.80963
       H    -8.42512  -12.18361   11.34424
       O    -8.00549  -12.95376   11.68282
      H1    -7.17914  -12.52927   12.16401
       H    -7.71341  -14.88243   12.62651
       O    -7.02531  -15.26664   13.21177
      H1    -7.21537  -16.27079   13.27475
       H   -10.42685  -14.33964    9.15165
       O   -10.23547  -15.05693    9.75697
      H1   -10.77698  -15.80243    9.54289
       H    -4.06776  -15.34217    9.90655
       O    -3.77070  -14.46549   10.24042
      H1    -2.78937  -14.42228   10.19842
       H   -10.26373  -14.24098    5.28697
       O    -9.27782  -14.17732    5.37133
      H1    -9.11035  -14.54071    6.28839
       H    -6.56384  -19.47126    9.39081
       O    -7.01876  -18.77370    8.92385
      H1    -6.42985  -17.98566    8.86607
       H    -8.59654  -16.86648    5.93510
       O    -7.84253  -16.99473    6.53829
      H1    -7.97180  -16.39680    7.25475
       H    -8.46103  -15.05967    9.34208
       O    -7.76966  -15.17299    8.67099
      H1    -6.93345  -15.18340    9.08436
       H    -4.64972  -12.64252    8.92892
       O    -4.87788  -12.27368    8.03737
      H1    -4.43613  -12.83721    7.37560
       H    -7.67925  -13.46856    8.13255
       O    -7.46668  -12.53544    7.86088
      H1    -6.54090  -12.44725    8.01620

