36
frame 4 | Written by MDAnalysis XYZWriter (release 2.4.3)
       H   -17.82524   -5.72677  -13.90524
       O   -18.78244   -5.45330  -13.94221
      H1   -19.21061   -5.69027  -13.08372
       H   -13.63667   -9.10015  -11.28899
       O   -14.44501   -9.19504  -11.78458
      H1   -15.13971   -9.51176  -11.18643
       H   -17.91191  -12.86654  -16.26837
       O   -18.02646  -13.70049  -15.78322
      H1   -18.50056  -14.34907  -16.34809
       H   -14.60304  -10.22145  -13.27541
       O   -14.97023  -10.73357  -14.01214
      H1   -15.94248  -10.62942  -13.88987
       H   -15.80341   -7.96564  -16.98786
       O   -16.72018   -7.68702  -17.10948
      H1   -16.98041   -8.10513  -17.94158
       H   -15.06736  -10.15664  -17.00784
       O   -14.45282   -9.58940  -16.56468
      H1   -14.50678  -10.03844  -15.68462
       H   -19.39074   -7.79376  -19.63193
       O   -19.24833   -8.12926  -18.75018
      H1   -19.73350   -8.95723  -18.72876
       H   -17.31204  -11.08051  -17.45783
       O   -16.98157  -11.07935  -16.53403
      H1   -17.24197  -10.19237  -16.20863
       H   -15.64271   -6.66352  -14.53302
       O   -16.22978   -6.71376  -13.73243
      H1   -16.70534   -7.56083  -13.82998
       H   -14.67556   -5.22191  -15.88577
       O   -14.57687   -6.17743  -15.94003
      H1   -13.60044   -6.29798  -15.78491
       H   -18.29525  -10.92788  -14.10422
       O   -18.86722  -11.23925  -13.37667
      H1   -18.20165  -11.64838  -12.76636
       H   -18.57587   -8.73545  -15.00396
       O   -17.60501   -8.91501  -14.87712
      H1   -17.13920   -8.44558  -15.56859

