36
frame 5 | Written by MDAnalysis XYZWriter (release 2.4.3)
       H     8.84468   -1.81453   -1.17349
       O     8.45186   -2.24622   -1.93012
      H1     9.05374   -3.03673   -2.01507
       H    10.28302    3.16893   -1.71609
       O    10.38738    4.11539   -2.00828
      H1    11.29407    4.19296   -2.25648
       H     6.47673    0.64237   -2.44873
       O     5.71135    0.02041   -2.54261
      H1     5.50113   -0.28931   -1.69757
       H    10.53829    5.03638    1.10627
       O    10.49813    4.14502    0.84521
      H1    10.52662    4.25066   -0.13856
       H    10.44882    1.08751   -1.56944
       O     9.74757    1.68865   -1.25585
      H1     9.04125    1.62983   -1.90654
       H    12.92664    0.27486   -1.51474
       O    12.19106    0.34405   -2.10791
      H1    11.65499   -0.51221   -1.96390
       H    12.42263    1.45644    1.13993
       O    11.76692    1.89659    1.66502
      H1    11.51059    2.73177    1.25802
       H     7.58794    2.42002   -3.74968
       O     7.65109    2.06176   -2.84658
      H1     6.99024    2.48345   -2.25294
       H     9.09269   -0.05181   -3.83202
       O     9.83629   -0.63338   -3.72508
      H1     9.36454   -1.23272   -3.07852
       H     7.08218    4.22756    0.37642
       O     7.73636    4.73247    0.86669
      H1     8.56112    4.18943    0.89608
       H     9.16706    4.54423   -3.27940
       O     8.66006    5.04003   -3.90895
      H1     7.94183    5.43122   -3.43577
       H     9.44153    0.18715    0.02231
       O     8.89880   -0.52892    0.36413
      H1     9.45373   -1.07178    0.97271

