36
frame 6 | Written by MDAnalysis XYZWriter (release 2.4.3)
       H     5.08852   -9.99971    9.49223
       O     5.37952  -10.74256   10.15098
      H1     6.30227  -10.49137   10.29066
       H     8.91097   -9.60281    7.03796
       O     8.27168   -9.54006    6.27636
      H1     8.74006   -8.99144    5.65304
       H     4.40707   -7.03799    6.27641
       O     4.62981   -6.28448    6.95556
      H1     4.92682   -5.59530    6.30790
       H     6.62413   -7.03084    6.75193
       O     6.94318   -7.48118    7.60191
      H1     7.51672   -8.18332    7.22350
       H    10.42527   -7.63475    5.01516
       O     9.72152   -7.87188    4.42820
      H1    10.05102   -7.54060    3.62052
       H     6.69196   -4.29282    8.67853
       O     7.53262   -4.80635    8.81081
      H1     7.40562   -5.53850    8.22738
       H     6.96377  -10.32485    5.50942
       O     6.13654  -10.78937    5.29130
      H1     5.95988  -10.86612    4.32815
       H     7.50123   -5.36405    3.36988
       O     7.86166   -5.49704    4.31843
      H1     8.47487   -6.25160    4.25399
       H    11.16415   -6.86919    6.91480
       O    11.75191   -7.29755    6.27293
      H1    12.42653   -6.69677    6.05384
       H     4.97304   -8.14470    8.28631
       O     4.32142   -8.75036    8.69256
      H1     3.59131   -8.29909    9.21840
       H     3.72243   -9.00728    4.70865
       O     4.37704   -8.48818    5.23964
      H1     5.06413   -9.08837    5.57162
       H    10.17209   -9.09922    9.40347
       O    10.24704   -9.37888    8.45649
      H1    10.97874  -10.03012    8.48258

