36
frame 6 | Written by MDAnalysis XYZWriter (release 2.4.3)
       H    11.89861  -10.47294  -11.18067
       O    11.57090   -9.54685  -11.17592
      H1    11.92667   -8.99201  -11.89843
       H    11.94741   -8.47660   -9.77476
       O    12.23374   -7.96749   -9.01357
      H1    13.20089   -8.16221   -8.99806
       H    16.49749   -5.64778  -12.04942
       O    15.59249   -5.85884  -12.22811
      H1    15.32431   -6.68168  -11.75463
       H    14.86630   -5.70819  -14.15837
       O    14.40820   -5.84471  -14.99895
      H1    13.67022   -6.39889  -14.80040
       H    15.09075   -9.60131  -14.96057
       O    14.58124   -9.66850  -14.15173
      H1    13.79098  -10.18377  -14.41139
       H    15.10845   -9.09552  -11.51026
       O    14.66025   -8.28238  -11.17624
      H1    14.77617   -8.31267  -10.19562
       H    12.40197   -7.05000  -12.73089
       O    12.35247   -7.89770  -13.26298
      H1    13.27028   -8.28339  -13.18067
       H    10.06222   -7.52845  -15.06131
       O     9.38969   -6.82842  -15.32741
      H1     8.56494   -7.21408  -15.04127
       H    13.42913   -5.55834  -11.50675
       O    12.64695   -5.63055  -11.95391
      H1    11.93334   -5.36784  -11.40783
       H    17.25341   -6.75990  -16.21728
       O    16.66891   -7.36639  -15.70508
      H1    15.94234   -6.82197  -15.33827
       H    11.21387  -10.49996  -14.55419
       O    11.88766  -11.28276  -14.54510
      H1    11.84189  -11.63775  -15.40044
       H    16.43328  -11.64395  -12.50213
       O    15.87511  -10.97346  -12.07979
      H1    15.53154  -10.41791  -12.81064

