36
frame 5 | Written by MDAnalysis XYZWriter (release 2.4.3)
       H     6.44371  -10.14634   -0.52186
       O     7.29854  -10.36581   -0.99523
      H1     7.45805   -9.56273   -1.53648
       H     5.88368   -5.72398    2.84022
       O     6.64227   -5.19693    2.59396
      H1     6.39394   -4.77111    1.77890
       H     8.70939   -8.34051    1.28949
       O     8.52920   -9.26071    1.44504
      H1     8.28377   -9.59052    0.57912
       H    11.06022   -7.25673   -0.30317
       O    10.16562   -7.17006   -0.60620
      H1     9.92764   -7.75029   -1.35559
       H     5.11719   -5.14685   -2.97911
       O     5.83955   -4.55752   -2.74075
      H1     6.20809   -4.98637   -1.99845
       H     3.92498   -8.00898    0.40743
       O     3.43807   -7.27323    0.77216
      H1     3.36346   -6.49876    0.26575
       H     3.94123   -4.01262   -0.91457
       O     4.32103   -4.39463   -0.15299
      H1     5.08880   -3.83416   -0.03201
       H     9.09665   -6.60712    0.81320
       O     8.98161   -6.58818    1.75706
      H1     8.07995   -6.32950    2.00894
       H     6.04902   -7.15622   -4.27134
       O     5.40463   -7.59388   -3.69348
      H1     5.52721   -7.19659   -2.82175
       H     7.69121   -7.24739   -1.75983
       O     7.14447   -6.56401   -1.39288
      H1     6.52700   -6.91556   -0.72342
       H     9.10474   -9.35349   -2.11829
       O     8.76524   -8.46253   -2.50026
      H1     9.23581   -8.31591   -3.32347
       H     5.09196   -9.87053    1.08341
       O     4.74998   -9.78669    0.19903
      H1     4.45052  -10.69639   -0.07508

