36
frame 6 | Written by MDAnalysis XYZWriter (release 2.4.3)
       H   -13.46737   -8.10664    8.62626
       O   -14.01490   -8.67570    9.17210
      H1   -14.84212   -8.24797    9.27349
       H   -10.37737   -5.28840    3.16371
       O   -10.32042   -4.91556    4.09853
      H1    -9.40077   -4.78073    4.38204
       H   -10.79640   -4.83412    8.90267
       O   -10.18422   -5.56740    8.95638
      H1    -9.76738   -5.45155    8.09788
       H   -13.56443   -4.98397   10.55962
       O   -14.47590   -4.88278   10.17644
      H1   -14.40131   -4.81400    9.21157
       H   -12.03495  -11.92681    6.32721
       O   -12.18620  -11.09190    5.84163
      H1   -11.28165  -10.66811    5.89859
       H   -12.37827   -4.68617    4.33957
       O   -13.26681   -4.37544    4.05242
      H1   -13.87537   -4.83191    4.67284
       H    -8.76182  -10.62396    5.74741
       O    -9.42430   -9.89455    5.91218
      H1    -9.81173   -9.63593    5.03364
       H   -11.11205   -6.27417    5.09613
       O   -11.76487   -6.97837    5.14572
      H1   -11.61857   -7.28133    4.24638
       H   -11.91630   -6.48496    8.08695
       O   -12.69909   -6.75984    7.60796
      H1   -12.44027   -6.95136    6.64673
       H   -15.96881   -6.33749    5.20122
       O   -16.74866   -6.59419    4.66484
      H1   -16.43777   -6.75706    3.75294
       H   -14.10404   -6.05232    6.72869
       O   -14.77863   -5.57648    6.11102
      H1   -14.82272   -4.76925    6.61828
       H   -11.22473   -2.80834    9.55987
       O   -11.76115   -3.34740    8.97162
      H1   -11.22057   -3.34722    8.13445

