36
frame 0 | Written by MDAnalysis XYZWriter (release 2.4.3)
       H    19.53164    5.29914  -10.66819
       O    18.90454    6.01078  -10.50802
      H1    18.23467    5.95446  -11.19839
       H    19.22323    4.85295  -18.92815
       O    18.53239    4.28226  -19.26178
      H1    18.39124    3.55474  -18.67076
       H    16.89425    8.03470  -16.65323
       O    17.70002    8.23635  -17.06487
      H1    18.17193    7.35883  -17.06381
       H    18.63094    9.20618  -18.92561
       O    19.26616    9.61836  -19.47894
      H1    19.77739   10.13160  -18.86215
       H    16.80875    6.51052  -14.82363
       O    17.02515    5.61312  -14.57789
      H1    16.42215    4.94115  -14.87679
       H    17.70004    2.19854  -17.80683
       O    18.64536    2.01606  -17.72045
      H1    18.98211    1.41234  -18.41953
       H    14.61546    3.47778  -14.01319
       O    15.46826    3.17979  -14.36119
      H1    15.28276    2.53721  -15.04734
       H    18.88088    5.88362  -15.74781
       O    19.10293    6.07953  -16.68822
      H1    20.09121    5.80899  -16.61726
       H    15.20160    6.26567  -16.97917
       O    15.07906    7.04126  -16.43992
      H1    14.45699    7.58312  -16.93656
       H    16.39741    7.21457  -11.77964
       O    16.35575    6.26024  -11.92817
      H1    16.62679    6.11522  -12.86368
       H    18.43339    8.70798  -15.43497
       O    18.87363    8.46417  -14.56309
      H1    18.60474    9.13442  -13.97042
       H    17.47846    3.16075  -13.36452
       O    18.26066    3.09086  -12.73727
      H1    18.98711    3.36080  -13.27362

