36
frame 6 | Written by MDAnalysis XYZWriter (release 2.4.3)
       H    11.89861  -10.47294  -11.18067
       O    11.57090   -9.54685  -11.17592
      H1    11.92667   -8.99201  -11.89843
       H    11.94741   -8.47660   -9.77476
       O    12.23374   -7.96749   -9.01357
      H1    13.20089   -8.16221   -8.99806
       H    13.19352   -2.08606  -10.56217
       O    12.81141   -1.27987  -10.25429
      H1    11.96533   -1.22675  -10.76062
       H    16.49749   -5.64778  -12.04942
       O    15.59249   -5.85884  -12.22811
      H1    15.32431   -6.68168  -11.75463
       H    14.86630   -5.70819  -14.15837
       O    14.40820   -5.84471  -14.99895
      H1    13.67022   -6.39889  -14.80040
       H    10.28607   -3.04322  -10.32528
       O    10.61595   -3.77665  -10.91566
      H1    10.96779   -3.32084  -11.75578
       H    11.22319   -1.16476  -13.28496
       O    11.40080   -2.05027  -12.95642
      H1    12.31304   -2.19024  -12.92046
       H    15.17167   -3.62108  -11.17221
       O    14.47943   -3.41383  -10.49346
      H1    14.34441   -4.19261   -9.95639
       H    13.30375   -6.03030   -8.88337
       O    13.94109   -5.36872   -8.78335
      H1    13.36921   -4.63269   -8.35143
       H    15.10845   -9.09552  -11.51026
       O    14.66025   -8.28238  -11.17624
      H1    14.77617   -8.31267  -10.19562
       H    12.40197   -7.05000  -12.73089
       O    12.35247   -7.89770  -13.26298
      H1    13.27028   -8.28339  -13.18067
       H    13.42913   -5.55834  -11.50675
       O    12.64695   -5.63055  -11.95391
      H1    11.93334   -5.36784  -11.40783

