36
frame 5 | Written by MDAnalysis XYZWriter (release 2.4.3)
       H   -17.56461   11.75105    1.41614
       O   -18.13266   11.51827    0.65253
      H1   -17.70506   11.96775   -0.09449
       H   -16.82009   12.34902   -4.49472
       O   -17.66244   11.85953   -4.28169
      H1   -17.54623   10.88651   -4.19003
       H   -19.96252    5.61917    2.28657
       O   -19.04898    5.81239    2.44156
      H1   -18.56066    5.74322    1.58519
       H   -17.01110    8.51270   -4.23552
       O   -16.84856    9.12036   -3.48550
      H1   -17.60280    8.88871   -2.88622
       H   -14.22341   10.34182   -2.39200
       O   -14.26001    9.45652   -2.71357
      H1   -15.21288    9.38230   -3.05051
       H   -19.76211    5.38679   -2.25120
       O   -18.82096    5.19274   -2.01114
      H1   -18.43753    4.80733   -2.76203
       H   -17.36090   13.51306   -1.61161
       O   -17.01408   12.60717   -1.77905
      H1   -17.42990   12.31480   -2.66324
       H   -14.67544    6.49284    2.18534
       O   -15.15190    7.38526    2.14241
      H1   -15.83260    7.06882    1.53958
       H   -19.53742    3.77174   -0.65972
       O   -19.67525    3.11637    0.02121
      H1   -19.20576    2.32281   -0.32504
       H   -19.53670    8.67333   -1.01757
       O   -19.22400    8.40505   -1.88797
      H1   -19.70232    7.56354   -2.09720
       H   -17.67861    8.41440   -0.83951
       O   -16.86736    8.80002   -0.40008
      H1   -17.15199    9.61559   -0.02107
       H   -16.94446    4.87750    0.92164
       O   -17.12143    5.69007    0.41755
      H1   -17.68563    5.46253   -0.35677

