36
frame 6 | Written by MDAnalysis XYZWriter (release 2.4.3)
       H    17.06875   15.04224   -4.42627
       O    16.30429   15.56046   -4.69255
      H1    15.86617   14.92717   -5.26179
       H    13.38536   12.81420   -4.69587
       O    13.72251   13.72754   -4.70526
      H1    12.91484   14.10579   -4.29082
       H    13.04666   12.30646   -7.79874
       O    12.59184   11.40891   -7.77604
      H1    11.66163   11.67495   -7.69829
       H    12.26430   15.13938   -0.92557
       O    12.36699   14.34713   -1.49508
      H1    11.63124   14.45935   -2.07945
       H    10.28884   16.18446   -2.34766
       O    10.38986   17.08249   -2.02783
      H1     9.55937   17.16533   -1.50643
       H    10.46183   15.20294   -4.11378
       O    10.20846   14.64344   -3.35244
      H1     9.20498   14.68082   -3.21886
       H    14.04130   13.99010   -6.58572
       O    13.70358   13.90240   -7.48413
      H1    14.54409   13.84204   -7.99999
       H    12.62199   10.92366   -5.83878
       O    12.72242   11.08370   -4.92738
      H1    11.98016   10.78898   -4.43797
       H    10.21207   15.92505   -6.06655
       O    10.69137   16.32463   -5.32810
      H1    10.19016   17.14936   -5.13927
       H    13.32804   10.49511   -2.62956
       O    14.26706   10.24031   -2.50523
      H1    14.14938    9.52202   -1.81758
       H    13.63482   12.93869   -1.47036
       O    14.21957   12.32685   -0.97328
      H1    14.37424   11.48092   -1.52382
       H    13.27596   15.39037   -7.06521
       O    13.13566   16.30592   -6.76077
      H1    12.47750   16.22787   -6.05190

