36
frame 6 | Written by MDAnalysis XYZWriter (release 2.4.3)
       H    -4.00293   14.92009  -15.16210
       O    -3.02480   15.04791  -15.22361
      H1    -2.88370   15.68789  -15.96427
       H    -2.62262   16.47438  -12.71257
       O    -2.81754   17.01727  -13.48674
      H1    -2.88740   16.38304  -14.22511
       H     0.79557   16.02098  -13.42455
       O     1.17774   15.22894  -13.01103
      H1     1.32924   15.51021  -12.08364
       H     1.39056   12.00598  -12.83541
       O     1.25248   11.83216  -11.87584
      H1     0.32037   11.60001  -11.80150
       H     2.57104   15.11534  -13.75061
       O     3.42729   15.25431  -14.14452
      H1     3.52890   14.47368  -14.75289
       H    -1.69646   14.00479  -13.33018
       O    -1.07520   13.85056  -12.60994
      H1    -0.30663   14.25274  -12.91708
       H     1.47904   17.82337  -14.78345
       O     0.59645   17.58406  -14.38721
      H1     0.51259   18.18798  -13.69037
       H    -2.14972   11.61976  -10.07307
       O    -1.50614   11.50980  -10.76887
      H1    -1.69398   12.11806  -11.52081
       H    -0.65877   13.13742  -15.46543
       O    -1.29262   13.30007  -16.15249
      H1    -1.95589   13.91192  -15.79588
       H     1.81746   12.94753  -10.77079
       O     2.42559   13.23785  -10.08274
      H1     2.17896   14.12933   -9.84862
       H     1.51852   12.15030  -15.31635
       O     0.89085   12.43922  -14.67196
      H1     0.21328   11.75033  -14.63048
       H    -1.93830   14.86544  -11.11155
       O    -2.55566   15.59731  -10.99512
      H1    -2.50822   15.96047  -10.06160

