36
frame 5 | Written by MDAnalysis XYZWriter (release 2.4.3)
       H   -17.60601   -4.86108    0.36664
       O   -18.05018   -5.09275    1.18931
      H1   -18.84138   -4.49303    1.18249
       H   -15.15549   -7.52274    6.51302
       O   -15.30675   -8.23611    7.11451
      H1   -14.87873   -8.08813    7.92182
       H   -18.58976  -10.05299    3.32713
       O   -18.31908   -9.97935    2.38959
      H1   -17.66724   -9.25809    2.34598
       H   -17.73433   -1.81268    7.92307
       O   -17.19049   -2.22972    8.61477
      H1   -16.26577   -2.25274    8.28161
       H   -18.77896  -10.62903    5.41787
       O   -19.25836   -9.94614    4.87360
      H1   -20.14326  -10.30837    4.75646
       H   -19.68381   -2.03437    7.02364
       O   -19.10613   -1.28936    7.13019
      H1   -18.70409   -1.23125    6.25355
       H   -17.34762   -4.38036    4.30364
       O   -17.60592   -3.61764    3.73354
      H1   -17.46609   -3.94788    2.80039
       H   -17.27730   -0.32321    4.48834
       O   -17.32665   -1.08682    5.07459
      H1   -17.28761   -1.83631    4.43931
       H   -19.29937   -4.77923    9.76864
       O   -18.39664   -4.93294    9.52627
      H1   -18.20048   -4.11342    9.05499
       H   -17.88612   -6.64531    2.37629
       O   -17.12708   -6.98817    2.81683
      H1   -16.38851   -7.04113    2.14196
       H   -16.00356   -5.26823    5.41413
       O   -16.79535   -5.68996    5.07881
      H1   -16.53353   -6.11072    4.24781
       H   -18.51630   -5.71811    5.54267
       O   -19.43726   -5.59630    5.64790
      H1   -19.87395   -5.89929    4.82316

