36
frame 5 | Written by MDAnalysis XYZWriter (release 2.4.3)
       H   -10.60829  -15.48679  -16.49122
       O   -11.18385  -15.03350  -15.86659
      H1   -10.59525  -14.54043  -15.32768
       H   -11.51811  -15.24524  -11.96036
       O   -11.11911  -14.52627  -11.42721
      H1   -10.49865  -14.94754  -10.81827
       H   -12.48352  -16.79985  -13.51969
       O   -11.64894  -16.29933  -13.46845
      H1   -11.42239  -15.92461  -14.32885
       H   -14.17288  -12.50339  -13.93280
       O   -13.51244  -13.16747  -13.59530
      H1   -12.95399  -12.67850  -12.97523
       H   -13.75046  -13.81839  -17.19732
       O   -14.61158  -14.34941  -17.22061
      H1   -14.88275  -14.35041  -16.29813
       H   -16.53947  -17.34570  -16.57523
       O   -15.98185  -18.02603  -16.98367
      H1   -15.47268  -17.56436  -17.68410
       H   -15.75989  -14.81516  -13.06646
       O   -15.32730  -15.08757  -13.84895
      H1   -14.60168  -14.41317  -13.86860
       H   -12.51985  -19.23501  -10.59458
       O   -13.45162  -19.03406  -10.48012
      H1   -13.53350  -18.37832  -11.17576
       H   -18.09574  -18.53022  -11.72877
       O   -17.31822  -18.20726  -12.19953
      H1   -17.17059  -17.25828  -11.99370
       H   -10.62116  -17.86873  -13.15945
       O    -9.81314  -18.36970  -13.03861
      H1    -9.21692  -17.67927  -12.72758
       H   -17.95913  -17.15305  -15.33730
       O   -17.52363  -16.33516  -15.31586
      H1   -16.64115  -16.38951  -14.93884
       H   -14.21549  -18.27238  -14.27439
       O   -14.16955  -17.68760  -13.48251
      H1   -14.34170  -16.77235  -13.82756

