36
frame 6 | Written by MDAnalysis XYZWriter (release 2.4.3)
       H    -1.88040  -18.09283   17.36665
       O    -1.46928  -18.89869   16.99314
      H1    -0.62683  -18.96186   17.46328
       H    -5.57643  -17.33996   13.23184
       O    -4.87345  -16.74284   12.89349
      H1    -4.06142  -17.01197   13.33447
       H    -5.16802  -16.75012   17.70264
       O    -5.23949  -16.50174   16.77721
      H1    -6.16629  -16.63181   16.52110
       H    -5.90142  -18.92723   14.77679
       O    -6.51526  -18.43813   14.20501
      H1    -6.89915  -19.05246   13.55517
       H    -2.72003  -14.51632   15.17109
       O    -3.24909  -14.89715   15.93576
      H1    -4.17769  -14.70258   15.78562
       H    -1.69848  -16.29003   18.69357
       O    -2.52369  -16.52859   18.22816
      H1    -2.58091  -15.80975   17.53838
       H    -8.46104  -16.34178   15.71181
       O    -9.08598  -17.09251   15.43970
      H1    -8.56643  -17.60929   14.87265
       H    -4.16446  -19.66009   17.20813
       O    -4.57603  -19.50913   18.05017
      H1    -4.02178  -20.00917   18.69187
       H    -9.79474  -17.05906   19.50613
       O    -9.44944  -17.26822   18.60803
      H1    -9.89765  -16.73013   17.92667
       H    -6.05847  -13.39784   18.97676
       O    -6.03787  -13.56198   18.05500
      H1    -6.33431  -14.44562   18.00653
       H    -6.09820  -18.07277   18.77167
       O    -6.71977  -17.70996   19.40287
      H1    -7.53187  -17.48127   18.95281
       H    -3.11174  -16.81210   15.13349
       O    -2.80922  -17.47476   14.46041
      H1    -1.85968  -17.44629   14.46060

