36
frame 5 | Written by MDAnalysis XYZWriter (release 2.4.3)
       H    16.53582   14.79702    2.92732
       O    16.61609   14.17041    2.16861
      H1    16.67943   13.29224    2.59556
       H    17.46255   12.11403    4.30235
       O    17.11480   11.78717    3.44979
      H1    17.77869   11.16401    3.24233
       H    13.13614    8.94273    1.75348
       O    12.93732    8.32525    1.06240
      H1    13.49840    8.39329    0.29943
       H    16.45510   11.11752   -3.90003
       O    15.72201   10.54936   -4.21917
      H1    14.94038   10.60515   -3.63050
       H    15.54677   11.14824    0.91822
       O    16.24086   10.76704    0.41485
      H1    16.15937   11.44889   -0.29819
       H    18.87753    9.05704    2.46930
       O    18.90354    9.34456    3.37729
      H1    19.27064    8.54881    3.84227
       H    18.57316   10.16871    0.27734
       O    18.77877    9.29599    0.57006
      H1    18.03389    8.84890    0.28715
       H    18.26379   12.75868   -3.59221
       O    17.82557   12.08952   -2.99110
      H1    17.46759   12.55952   -2.23772
       H    15.48357    7.65540   -0.60100
       O    14.64308    7.90207   -1.01970
      H1    14.15595    7.05950   -1.15902
       H    12.80037   10.16178   -2.28790
       O    13.77836   10.13334   -2.34873
      H1    14.06374    9.30757   -1.94778
       H    14.89813   13.32815   -2.02471
       O    15.22404   12.55128   -1.65517
      H1    14.66793   11.82959   -1.96011
       H    17.21755    6.30110    0.66161
       O    16.91844    6.89106   -0.00603
      H1    17.30978    6.62084   -0.91399

