36
frame 6 | Written by MDAnalysis XYZWriter (release 2.4.3)
       H     9.46335  -16.41236  -18.38989
       O    10.25836  -15.79073  -18.43862
      H1    11.06173  -16.36287  -18.59421
       H    11.62339  -19.18163  -16.44830
       O    11.33386  -19.06161  -15.59494
      H1    11.25085  -18.12336  -15.52366
       H     5.44330  -15.55102  -17.07976
       O     5.76814  -14.80160  -16.55589
      H1     6.70554  -14.69332  -16.60689
       H     9.46585  -14.15853  -18.90736
       O     9.30028  -13.22599  -18.98387
      H1     8.41607  -13.01956  -18.69446
       H    10.52516  -12.84444  -17.74246
       O    11.22560  -12.66526  -17.08265
      H1    12.10253  -12.78878  -17.55225
       H    13.03014  -16.41183  -19.59335
       O    12.88490  -16.89625  -18.76078
      H1    13.24921  -16.32304  -18.07825
       H     7.74139  -18.32667  -16.26410
       O     7.43098  -19.22291  -16.03503
      H1     7.63449  -19.80409  -16.78762
       H    13.07300  -18.61082  -18.74967
       O    12.90111  -19.48325  -18.49444
      H1    13.10032  -20.05364  -19.24670
       H    10.98905  -18.99447  -18.83466
       O    10.12301  -18.83910  -19.12008
      H1    10.12688  -18.79287  -20.05394
       H    10.98717  -15.98552  -15.18309
       O    10.29955  -16.34314  -15.85211
      H1    10.48218  -15.95445  -16.70301
       H     8.36519  -17.78850  -19.06658
       O     7.86468  -17.20684  -18.45314
      H1     7.23005  -16.77163  -19.06700
       H     8.80911  -16.26592  -15.01988
       O     8.03782  -16.25687  -14.42511
      H1     8.12993  -16.98003  -13.79564

