36
frame 7 | Written by MDAnalysis XYZWriter (release 2.4.3)
       H    14.88014   11.91998   -3.87069
       O    14.28327   12.07746   -4.60437
      H1    13.79508   11.25385   -4.78501
       H    13.59507    8.92743    2.55725
       O    13.33721    8.09194    2.08698
      H1    13.66471    8.05156    1.21558
       H    18.04945   10.97912   -2.30680
       O    17.44514   10.71357   -3.01106
      H1    16.66858   10.31674   -2.62709
       H    10.91469    8.37657   -3.21424
       O    11.16086    8.01043   -2.36745
      H1    10.39032    7.71584   -1.85941
       H    10.38706   11.36912   -3.30368
       O     9.41004   11.21032   -3.42776
      H1     9.21012   11.84765   -4.17367
       H    11.46662   11.03844   -1.05290
       O    11.78683   10.70661   -1.91131
      H1    11.51289    9.81096   -1.84657
       H    12.85344   10.02408   -6.43262
       O    12.87560    9.81018   -5.49440
      H1    11.97807    9.49406   -5.36428
       H    12.04104   12.45102    1.65787
       O    11.68525   12.20950    0.75945
      H1    12.08220   12.89129    0.16439
       H    15.86730    7.76301    0.12249
       O    14.93813    7.61305   -0.13204
      H1    14.94864    6.89178   -0.74543
       H    13.78189    9.81612   -2.01935
       O    14.68886    9.54235   -1.92150
      H1    14.73183    8.87672   -1.22716
       H    15.42973    7.37561   -4.59028
       O    14.45632    7.65210   -4.73459
      H1    14.23046    8.49223   -4.26568
       H    14.64158   13.13685   -0.45019
       O    15.54504   12.73033   -0.55335
      H1    15.47361   11.82285   -0.84469

