36
frame 7 | Written by MDAnalysis XYZWriter (release 2.4.3)
       H   -19.68628   15.92427  -12.26542
       O   -19.56354   16.81226  -11.93655
      H1   -19.39533   16.58859  -11.01882
       H   -17.01777   18.52455   -6.80012
       O   -16.36220   19.18446   -6.87733
      H1   -16.96473   19.96359   -6.92858
       H   -16.99888   15.69492  -13.28707
       O   -17.28748   15.75717  -14.18515
      H1   -17.94937   16.47422  -14.26342
       H   -18.54020   19.83344  -11.58530
       O   -18.74294   19.38540  -12.47412
      H1   -19.22801   18.51751  -12.28704
       H   -13.31254   16.01906  -11.52855
       O   -14.04743   15.60635  -11.04135
      H1   -13.56755   15.03114  -10.47644
       H   -15.34974   18.69667  -12.51822
       O   -16.08503   18.06579  -12.40135
      H1   -16.88199   18.57556  -12.65630
       H   -18.64501   14.14912  -11.12038
       O   -18.89117   13.98137  -10.17954
      H1   -18.84581   14.84855   -9.78057
       H   -18.90594   17.18353   -5.50202
       O   -18.36509   17.07715   -6.29228
      H1   -17.80129   16.30227   -6.15002
       H   -16.43511   18.10529  -10.68785
       O   -16.71190   18.21906   -9.76666
      H1   -17.28565   19.04293   -9.89290
       H   -15.32525   18.72504   -5.66371
       O   -14.53177   18.63729   -5.09253
      H1   -13.97885   18.10161   -5.61632
       H   -18.05813   17.22804   -9.31497
       O   -18.87606   16.76188   -9.09268
      H1   -18.91550   16.81232   -8.12485
       H   -15.00485   17.90670   -9.42451
       O   -14.15479   17.47408   -9.12611
      H1   -14.14169   16.76017   -9.75838

