36
frame 7 | Written by MDAnalysis XYZWriter (release 2.4.3)
       H   -16.66408   -5.13327   -1.32815
       O   -16.80733   -4.26439   -1.63639
      H1   -17.10699   -4.43613   -2.62161
       H   -16.55093   -7.48043   -1.15554
       O   -16.02728   -6.68882   -0.87766
      H1   -15.33414   -6.75771   -1.49290
       H   -14.81016   -9.87983   -0.06581
       O   -14.73952   -9.88496   -0.98508
      H1   -14.82849  -10.81915   -1.10897
       H   -13.55684   -4.12521   -4.51949
       O   -14.49648   -3.80970   -4.37384
      H1   -15.00147   -4.64986   -4.31396
       H   -10.77629   -7.39699   -5.34782
       O   -10.83043   -7.02658   -4.47083
      H1   -11.18609   -6.16283   -4.51558
       H   -14.83743   -9.30150   -4.47284
       O   -14.17258   -8.65766   -4.76357
      H1   -14.44758   -8.33588   -5.59943
       H   -11.64259   -4.11323   -4.89836
       O   -11.97232   -4.67239   -4.16071
      H1   -11.73872   -4.11665   -3.36795
       H   -12.78097   -9.73373   -4.44574
       O   -12.23528  -10.54432   -4.18619
      H1   -12.96884  -11.20068   -3.99719
       H    -8.45981   -9.30421   -3.34301
       O    -9.07875   -8.82606   -2.78486
      H1    -9.59804   -8.21856   -3.28362
       H   -13.37849   -7.30689   -3.17199
       O   -13.38965   -6.47468   -2.66948
      H1   -12.68705   -6.05059   -3.06976
       H   -10.30180   -9.68264   -1.89031
       O   -11.02126  -10.16494   -1.52495
      H1   -11.58728  -10.45912   -2.25401
       H   -12.71477   -7.09232   -0.87322
       O   -12.41943   -7.60539   -0.08099
      H1   -12.25837   -8.48683   -0.44866

