36
frame 6 | Written by MDAnalysis XYZWriter (release 2.4.3)
       H     0.27095  -16.69992    2.27027
       O     1.26916  -16.87167    2.35267
      H1     1.70680  -16.05799    2.61163
       H     4.42813  -18.67088    5.15711
       O     4.47735  -19.61914    5.46062
      H1     4.08316  -20.11767    4.66707
       H     5.69220  -16.51425    1.42857
       O     5.48733  -15.67939    1.85318
      H1     6.02686  -15.06991    1.36970
       H     4.18366  -17.47044    7.23470
       O     4.19728  -17.40150    8.23725
      H1     4.48111  -18.25876    8.56096
       H     5.02569  -18.44156    0.81295
       O     5.95962  -18.28881    0.72989
      H1     6.20092  -18.05709   -0.13751
       H     4.52927  -15.88160    4.83524
       O     4.27230  -16.81858    5.08044
      H1     3.54681  -17.02480    4.48303
       H     5.93414  -13.82242    4.56369
       O     5.19585  -14.41204    4.29950
      H1     5.50148  -14.92999    3.54389
       H    10.00733  -19.13053    5.05364
       O     9.29801  -18.64523    5.44924
      H1     9.56162  -18.20369    6.22132
       H     2.18044  -16.95106    0.56303
       O     2.76623  -17.05387   -0.19464
      H1     2.27135  -17.65584   -0.79701
       H     0.35825  -17.68362    5.00294
       O     0.37362  -18.36524    4.33652
      H1     0.72182  -17.93982    3.51973
       H     8.81437  -17.23041    4.31958
       O     8.76865  -16.79120    3.45862
      H1     8.65828  -15.91083    3.69922
       H     6.87808  -15.25668    7.38620
       O     6.68194  -15.97926    8.00545
      H1     5.74121  -16.21456    7.93141

