36
frame 7 | Written by MDAnalysis XYZWriter (release 2.4.3)
       H    16.85038   -1.99344   13.55967
       O    16.63688   -2.37910   14.40886
      H1    17.12185   -1.81317   15.08799
       H    16.20563   -2.55451   18.54096
       O    16.54368   -1.73684   18.15133
      H1    15.75866   -1.12842   18.22397
       H    18.44193    0.37486   16.02361
       O    18.10873   -0.52284   15.93654
      H1    17.77349   -0.76058   16.76664
       H    17.33596    3.57823   13.39822
       O    17.26195    3.79926   14.31837
      H1    16.39464    3.43190   14.59954
       H    16.10012    0.39714   15.07994
       O    15.18881    0.68553   15.32851
      H1    14.59640    0.25334   14.68005
       H    15.01860    6.70383   18.03934
       O    15.96558    6.50797   18.16067
      H1    16.48099    6.20945   17.40035
       H    16.10034    2.34920   17.48194
       O    16.65836    1.66745   17.90221
      H1    17.49492    2.16391   18.02260
       H    16.45567    1.72986   11.16459
       O    17.05687    1.72817   11.94095
      H1    17.89548    2.00422   11.57263
       H    14.94709    2.23415   15.84248
       O    15.10326    3.18052   16.13029
      H1    14.24695    3.60407   16.23725
       H    18.97324    6.85269   14.97007
       O    19.84872    7.06577   14.65783
      H1    20.25579    7.50536   15.42843
       H    17.00096    5.28978   15.36914
       O    17.09297    6.15132   15.81213
      H1    16.41991    6.74092   15.36600
       H    19.34222    2.27803   16.51900
       O    19.23574    2.16137   15.55429
      H1    18.45099    2.74426   15.33049

