36
frame 7 | Written by MDAnalysis XYZWriter (release 2.4.3)
       H    16.95870   19.47149   12.92694
       O    17.28562   18.97700   13.67902
      H1    17.94945   19.46418   14.20854
       H    18.84294   18.99838   18.64318
       O    18.96582   18.05497   18.41883
      H1    18.24309   17.72359   17.91012
       H    15.78867   14.03432   17.83008
       O    16.11271   14.89268   18.26462
      H1    15.31946   15.42559   18.44360
       H    16.89546   17.97250   15.33183
       O    16.90694   18.08183   16.30090
      H1    16.03523   17.70979   16.60110
       H    19.20679   14.55934   13.98963
       O    18.26328   14.30699   14.07670
      H1    18.16393   13.38722   14.06331
       H    18.46688   15.41345   16.28848
       O    18.48047   15.22328   17.21793
      H1    17.60626   15.22856   17.65070
       H    15.38439   15.16601   13.32697
       O    14.86719   14.91922   14.13119
      H1    14.39400   14.12838   13.75971
       H    17.27065   12.32665   17.98997
       O    16.46355   11.82558   17.82983
      H1    16.31911   11.99880   16.87490
       H    18.81738   13.79710   17.95278
       O    19.01265   12.95150   18.49953
      H1    19.15720   13.20048   19.40899
       H    14.40465   16.21422   16.03912
       O    14.40200   17.09770   16.47730
      H1    13.83608   17.06277   17.26664
       H    16.60522   11.51225   14.91489
       O    15.87023   11.99052   15.27158
      H1    16.01089   12.91205   15.03679
       H    17.34648   17.05009   12.87377
       O    17.10928   16.20616   12.59342
      H1    17.57001   15.49247   13.12523

