36
frame 6 | Written by MDAnalysis XYZWriter (release 2.4.3)
       H     8.91317   18.92766   12.55791
       O     8.59219   18.07374   12.29121
      H1     8.04857   17.74547   12.99757
       H    11.00840   19.02874   15.51393
       O    11.22587   18.30105   14.91219
      H1    12.12301   18.03593   15.13138
       H     7.37940   19.11292   15.38139
       O     6.85680   19.63494   14.74932
      H1     5.92032   19.43198   14.92194
       H     5.48184   18.14533   12.49758
       O     5.44091   17.29350   12.93969
      H1     5.56562   16.53884   12.27705
       H     6.46946   16.60778   14.19857
       O     7.24462   16.12096   14.60203
      H1     7.12042   15.18087   14.39294
       H    10.56766   14.08349   15.07708
       O    11.08845   13.26967   15.32349
      H1    11.76955   13.20071   14.61883
       H    12.40924   19.21021   17.44779
       O    12.44950   18.44308   17.99370
      H1    11.50249   18.06302   17.97703
       H     8.32037   14.63315   18.98618
       O     7.47071   14.93367   19.32745
      H1     7.15170   14.18463   19.86753
       H     7.50035   17.91539   19.47078
       O     6.76639   17.55279   18.91198
      H1     6.86932   16.57189   18.96012
       H     7.79745   17.24244   16.11713
       O     8.09928   18.05779   16.41836
      H1     7.61932   18.13775   17.29110
       H    10.42546   16.04987   18.25088
       O    10.09263   16.96928   18.21902
      H1     9.72639   17.07970   17.30082
       H     9.05225   15.91048   14.65155
       O     9.95713   15.76895   14.89196
      H1    10.42005   16.44728   14.42579

