36
frame 7 | Written by MDAnalysis XYZWriter (release 2.4.3)
       H   -17.93042    0.19683  -13.92765
       O   -17.30709    0.49090  -13.21054
      H1   -16.51345    0.66729  -13.76405
       H   -17.23185    4.25241  -10.01826
       O   -17.16601    3.31148  -10.31282
      H1   -18.00190    2.92988  -10.01243
       H   -14.95083    0.88529  -10.97512
       O   -14.86213    1.84399  -11.04383
      H1   -15.53859    2.41517  -10.55882
       H   -13.32000    1.61972  -10.19812
       O   -12.62375    1.90559   -9.53174
      H1   -11.79987    1.44865   -9.74540
       H   -11.07276    5.58999  -12.82522
       O   -10.43508    6.17140  -13.25791
      H1    -9.62257    5.68487  -13.34268
       H   -12.33976    5.13832  -11.19736
       O   -12.09457    4.56346  -11.92119
      H1   -12.95446    4.28160  -12.31828
       H   -16.50199    6.32987  -12.95462
       O   -15.94836    6.05318  -12.17769
      H1   -15.11457    6.62591  -12.29840
       H   -11.02344    3.21820  -12.07678
       O   -10.13878    2.83257  -12.32705
      H1    -9.66947    3.54560  -12.75304
       H   -17.61421    3.41738  -12.19295
       O   -17.94570    3.16333  -13.08447
      H1   -17.57141    2.19481  -13.08975
       H   -17.16801    6.20332  -11.00078
       O   -17.45542    6.27562  -10.02810
      H1   -18.43873    6.12298   -9.96756
       H   -15.43893    4.40950  -12.65483
       O   -14.69897    3.84643  -12.89269
      H1   -14.83986    2.96824  -12.45240
       H   -16.41599    2.22218  -15.87469
       O   -15.72017    1.88631  -15.28194
      H1   -15.54657    2.52594  -14.60759

