36
frame 0 | Written by MDAnalysis XYZWriter (release 2.4.3)
       H   -12.70572  -11.35351  -13.17200
       O   -11.75836  -11.33279  -12.94533
      H1   -11.27648  -11.76631  -13.62665
       H   -13.88102   -8.32380  -15.59420
       O   -14.43979   -8.58008  -14.83865
      H1   -15.39275   -8.58165  -15.10214
       H   -15.73432   -6.62969  -17.51190
       O   -16.74803   -6.62208  -17.45800
      H1   -17.01367   -7.15797  -18.21334
       H   -12.64960  -10.43489  -16.89672
       O   -12.42372   -9.49220  -16.89258
      H1   -11.52197   -9.38879  -16.52810
       H   -16.68443   -8.18729  -11.99654
       O   -17.10445   -8.96083  -11.57036
      H1   -17.54511   -8.71060  -10.74512
       H   -14.57345  -10.24522  -13.87781
       O   -14.51235  -11.00493  -13.36812
      H1   -14.84235  -10.70501  -12.52801
       H   -12.25954   -6.10441  -13.77433
       O   -11.92679   -5.26005  -14.11870
      H1   -11.18589   -5.51863  -14.68227
       H   -16.24392  -10.58661  -18.35773
       O   -15.70800  -10.50398  -17.55612
      H1   -16.15941   -9.89480  -16.94382
       H   -14.96111   -5.59032  -15.75040
       O   -15.52802   -5.28641  -15.06091
      H1   -15.71564   -6.10241  -14.53796
       H   -14.07814   -5.31646  -17.52894
       O   -13.94830   -6.20682  -17.03247
      H1   -13.02499   -6.48979  -17.14710
       H   -13.48430   -7.89990  -13.46687
       O   -12.68594   -7.63919  -12.97296
      H1   -12.01231   -8.31927  -13.24322
       H   -18.00026   -9.13913  -15.50643
       O   -17.08306   -8.77425  -15.67920
      H1   -17.27596   -7.95385  -16.22365

