36
frame 7 | Written by MDAnalysis XYZWriter (release 2.4.3)
       H    -4.54450    4.15021   12.89879
       O    -4.59224    3.34656   12.44278
      H1    -4.71370    2.70546   13.13154
       H    -7.59425    1.30369   11.53721
       O    -6.98644    0.45669   11.52296
      H1    -6.28309    0.62430   12.16310
       H    -8.34582    2.86997    9.99572
       O    -8.82808    2.43659   10.69665
      H1    -9.62741    2.90951   10.79751
       H    -7.90961    2.11740   14.65743
       O    -7.58469    2.86492   15.13972
      H1    -7.39215    3.55518   14.52409
       H    -8.73721    5.46095   12.56512
       O    -9.35171    5.96008   12.00057
      H1    -9.98752    5.27879   11.68622
       H    -9.98697    7.31183   17.08458
       O    -9.40725    6.56197   16.80255
      H1    -9.82583    6.31785   15.95429
       H    -8.41765    7.42553   15.25307
       O    -7.78112    7.91689   14.64401
      H1    -7.03865    8.03072   15.22544
       H    -5.46223    5.82090   15.29476
       O    -4.96447    5.51158   14.49279
      H1    -4.03320    5.29706   14.75888
       H    -6.79838    5.53893   13.51816
       O    -7.26753    4.75092   13.20529
      H1    -6.69371    4.23704   12.65354
       H    -8.67365   -0.25307   13.85649
       O    -8.73032    0.66329   14.01000
      H1    -9.63187    0.73231   14.45247
       H    -5.70558    2.28382   17.76489
       O    -5.44236    2.22811   16.83204
      H1    -6.18273    2.54886   16.26732
       H    -4.76195    1.04078   14.24691
       O    -5.45393    0.95481   13.61312
      H1    -6.25947    1.39794   14.03833

