36
frame 6 | Written by MDAnalysis XYZWriter (release 2.4.3)
       H    11.89861  -10.47294  -11.18067
       O    11.57090   -9.54685  -11.17592
      H1    11.92667   -8.99201  -11.89843
       H    10.68471  -12.69308   -8.53888
       O     9.76341  -12.54924   -8.74900
      H1     9.41866  -13.40967   -8.94743
       H    13.56730  -11.74903   -7.87965
       O    14.19166  -11.01785   -7.76822
      H1    15.04626  -11.35091   -8.19401
       H    13.57046  -14.02261  -11.33813
       O    13.05087  -14.19409  -10.54229
      H1    13.15123  -15.13633  -10.34705
       H    10.39747  -17.11297   -6.62942
       O    11.21370  -16.58021   -6.47529
      H1    11.02125  -15.72569   -6.17960
       H    13.37719  -16.79098   -8.73444
       O    12.49809  -17.13869   -8.94904
      H1    11.98297  -16.88640   -8.21228
       H    14.13042  -14.33730   -5.68666
       O    14.48036  -14.64504   -6.56067
      H1    15.39122  -14.28930   -6.62856
       H     9.75107  -15.35956  -10.81677
       O     9.06437  -14.75442  -10.59566
      H1     8.35777  -15.32148  -10.31762
       H    13.17561  -13.54416   -7.44014
       O    12.48338  -13.07963   -8.05128
      H1    12.78578  -13.47696   -8.91843
       H    10.62075  -12.46434  -10.23834
       O    11.27748  -12.38724  -10.94153
      H1    11.82041  -13.17670  -10.80949
       H    17.00183  -11.04778   -8.90908
       O    16.48182  -11.79489   -9.20561
      H1    16.31108  -11.69003  -10.10968
       H    11.35744  -17.05200  -10.34165
       O    10.75701  -16.74663  -11.06940
      H1     9.93594  -17.32620  -11.12869

