36
frame 7 | Written by MDAnalysis XYZWriter (release 2.4.3)
       H    -7.39412   -5.30075   18.06230
       O    -6.72282   -5.42438   18.75101
      H1    -5.81569   -5.12990   18.53695
       H     0.96724   -1.12999   18.20639
       O     1.83037   -1.07534   17.79521
      H1     2.00878   -2.02751   17.53473
       H    -1.94204   -7.02045   17.67791
       O    -2.11635   -7.87635   18.08922
      H1    -1.64594   -7.77139   18.89691
       H    -1.44673   -4.99420   15.71306
       O    -1.33395   -5.83390   16.20633
      H1    -0.79816   -6.35135   15.60663
       H    -4.56166   -1.09511   19.18134
       O    -4.82368   -1.71436   19.88356
      H1    -4.76333   -2.59993   19.42603
       H    -1.00476    0.18727   18.78353
       O    -0.72212   -0.69006   19.09629
      H1    -0.97248   -0.70447   20.03148
       H    -4.55273    0.60333   17.27494
       O    -4.00068    0.02325   17.83583
      H1    -3.61381    0.64232   18.54154
       H    -1.72438   -3.95836   20.07240
       O    -1.78721   -3.75425   19.13143
      H1    -1.68327   -2.82122   19.09815
       H    -0.29079   -4.75974   18.80865
       O     0.42598   -5.41436   18.70133
      H1     0.28773   -5.85665   17.83149
       H    -5.36476   -2.07593   15.33491
       O    -5.27062   -2.25335   16.29383
      H1    -4.57889   -1.59282   16.55140
       H    -3.52130   -4.16479   18.25992
       O    -4.41028   -3.86161   18.27077
      H1    -4.59802   -3.45883   17.38239
       H     2.33586   -4.32398   17.97346
       O     2.47794   -3.76871   17.20438
      H1     1.80143   -3.82597   16.54495

