36
frame 6 | Written by MDAnalysis XYZWriter (release 2.4.3)
       H   -18.04428   -9.92236   11.50055
       O   -17.84408  -10.85267   11.42797
      H1   -18.33722  -11.32259   12.12830
       H   -16.34431  -13.99162   19.39283
       O   -16.69171  -13.59226   18.62501
      H1   -15.98342  -13.18947   18.09813
       H   -15.00154  -12.42243   15.86961
       O   -15.89061  -12.54115   16.17544
      H1   -16.22117  -13.33991   15.70640
       H   -18.56717  -10.29336   14.81908
       O   -17.97424  -10.11668   15.60103
      H1   -17.11861   -9.81951   15.19332
       H   -19.25781  -14.97876   11.75871
       O   -18.85590  -14.91202   12.65493
      H1   -19.48627  -14.35563   13.11667
       H   -14.89892  -14.71723   13.23754
       O   -14.37989  -14.03254   13.66047
      H1   -14.68424  -14.14357   14.55931
       H   -15.04479   -8.43034   18.16792
       O   -15.83035   -8.92688   17.90888
      H1   -15.59807   -9.72838   17.45194
       H   -17.03848  -16.33938   18.10555
       O   -17.43990  -17.02635   17.56216
      H1   -18.30390  -16.65841   17.33138
       H   -18.59345  -17.04018   13.44722
       O   -19.29873  -17.71534   13.40508
      H1   -18.97871  -18.38118   14.03095
       H   -18.42206  -13.26528   16.68522
       O   -19.15045  -12.76829   16.28405
      H1   -18.66192  -11.97736   16.13902
       H   -17.62950  -14.51687   14.17605
       O   -17.02699  -14.68272   14.93282
      H1   -16.76826  -15.58377   14.81191
       H   -15.54870  -10.22931   13.46699
       O   -15.27975   -9.79065   14.27320
      H1   -14.93604   -9.00490   13.83305

