36
frame 6 | Written by MDAnalysis XYZWriter (release 2.4.3)
       H   -18.52905   11.50374    5.06651
       O   -18.69096   11.53633    6.01001
      H1   -18.65759   12.43382    6.33423
       H   -18.13068   14.70111    2.02892
       O   -18.69900   15.37792    2.41479
      H1   -19.08381   15.01876    3.20151
       H   -16.75838    9.63660    8.11211
       O   -17.59278    9.38222    7.71371
      H1   -17.86213   10.06071    7.04010
       H   -16.41157   17.00921    5.46301
       O   -17.16686   16.45221    5.29495
      H1   -17.42026   16.52080    4.35471
       H   -17.61048   10.82949    2.91957
       O   -18.39268   10.93564    3.47157
      H1   -19.14525   10.53506    3.02081
       H   -18.95524   13.98728    8.24557
       O   -18.64955   14.02296    7.34226
      H1   -18.94918   14.86344    6.93656
       H   -15.79608   13.42301    4.36715
       O   -15.53171   13.00575    5.19292
      H1   -15.25532   12.07565    5.02025
       H   -16.35159   15.18728    8.33611
       O   -16.38974   15.92951    8.98991
      H1   -15.86745   15.74299    9.75799
       H   -18.79534   16.47967    6.14004
       O   -19.68819   16.28558    6.33091
      H1   -20.11914   16.76280    7.06253
       H   -19.08322    9.58476    8.70129
       O   -19.77272    9.27944    9.34329
      H1   -19.39614    9.31187   10.27583
       H   -19.37236   12.96417   10.92424
       O   -18.82150   13.49695   10.31281
      H1   -19.14128   14.36929   10.51854
       H   -17.04410   13.57234    7.52623
       O   -16.07887   13.51594    7.69062
      H1   -15.80167   13.12369    6.85545

