36
frame 7 | Written by MDAnalysis XYZWriter (release 2.4.3)
       H    -7.73019   -9.68431    2.95431
       O    -8.23913   -9.88989    2.15674
      H1    -7.68371   -9.34529    1.48704
       H   -10.13617   -9.53391    2.81705
       O   -11.01376   -9.51049    3.20628
      H1   -11.45477  -10.32008    2.84082
       H   -10.49663  -14.48147    4.29080
       O   -10.34218  -13.56769    4.09371
      H1    -9.95094  -13.52059    3.21660
       H    -9.77936  -13.45659   -1.14790
       O    -9.43001  -12.55363   -1.06974
      H1   -10.14525  -11.93939   -1.17616
       H   -12.67571  -11.82948    4.23014
       O   -12.71790  -12.00405    3.27970
      H1   -11.88324  -12.54451    3.13351
       H    -5.26644  -11.93651    1.72804
       O    -5.15118  -11.95236    2.70420
      H1    -5.58577  -12.71063    3.15089
       H    -7.91116  -11.67663   -2.02855
       O    -7.04563  -11.52248   -2.49916
      H1    -6.59265  -12.30218   -2.16626
       H    -6.04082  -11.46173   -0.33104
       O    -5.19695  -11.76620    0.09557
      H1    -4.98915  -12.59217   -0.30044
       H    -7.47438  -15.63538    0.27885
       O    -6.89227  -15.17122    0.91910
      H1    -7.33924  -14.42770    1.36700
       H    -8.38668  -12.12400    2.30129
       O    -8.53430  -12.91458    1.74410
      H1    -8.80613  -12.58167    0.87862
       H   -11.24990  -14.93827   -1.52803
       O   -10.89701  -15.07584   -0.64915
      H1   -11.43422  -14.40902   -0.17857
       H   -10.30180   -9.68264   -1.89031
       O   -11.02126  -10.16494   -1.52495
      H1   -11.58728  -10.45912   -2.25401

