36
frame 7 | Written by MDAnalysis XYZWriter (release 2.4.3)
       H    -1.92335  -10.86421  -17.09035
       O    -1.44662  -11.74079  -17.08939
      H1    -1.42699  -12.12478  -17.99432
       H     3.54143   -3.87758  -18.80961
       O     4.20507   -4.50829  -18.56581
      H1     4.53090   -4.94830  -19.36531
       H     3.71431   -9.47683  -16.36997
       O     3.31119   -8.62341  -16.46283
      H1     3.26806   -8.34052  -15.52176
       H    -3.42679   -9.37950  -17.27258
       O    -3.23422   -9.81859  -16.43510
      H1    -3.72089   -9.37015  -15.75315
       H    -3.75310   -9.34644  -19.68296
       O    -4.17545   -8.82856  -18.99046
      H1    -4.99934   -8.45586  -19.37878
       H     4.79070   -8.44536  -17.97665
       O     5.14142   -8.43619  -18.90300
      H1     6.15167   -8.41537  -18.81625
       H     3.60305  -12.49579  -18.89189
       O     4.35002  -12.78414  -18.33627
      H1     4.24755  -12.33141  -17.49895
       H     1.64555  -11.87147  -17.84777
       O     1.86637  -11.73728  -18.82560
      H1     2.11528  -10.79308  -18.88051
       H    -0.66111   -5.54621  -17.86865
       O    -0.99876   -4.69122  -17.55444
      H1    -1.72507   -4.82816  -16.95975
       H     0.55225   -6.93282  -19.74310
       O     0.22819   -7.80571  -19.43324
      H1     1.02309   -8.42099  -19.44460
       H     1.53047   -7.54616  -16.57202
       O     0.89164   -7.15351  -15.96062
      H1     0.99553   -6.19957  -15.94115
       H     0.70627   -9.95471  -14.84724
       O     0.32114   -9.31915  -14.25259
      H1     0.38244   -8.48756  -14.79852

