36
frame 7 | Written by MDAnalysis XYZWriter (release 2.4.3)
       H    -5.17536  -11.51326  -15.23795
       O    -4.90524  -12.37206  -15.04305
      H1    -4.03340  -12.37101  -15.48697
       H    -1.92335  -10.86421  -17.09035
       O    -1.44662  -11.74079  -17.08939
      H1    -1.42699  -12.12478  -17.99432
       H    -5.76014  -15.37365  -14.76318
       O    -6.18328  -14.89937  -15.50709
      H1    -5.61055  -14.13945  -15.62075
       H    -2.86318  -12.81834  -17.61112
       O    -3.65491  -13.35040  -17.70493
      H1    -3.60310  -14.21687  -17.26148
       H    -0.39184  -16.47186  -18.55737
       O    -0.54491  -15.72807  -19.13416
      H1     0.17174  -15.84692  -19.82323
       H     1.29843  -13.36007  -15.93076
       O     1.04340  -12.40327  -16.12445
      H1     0.15135  -12.44507  -16.47927
       H    -3.42679   -9.37950  -17.27258
       O    -3.23422   -9.81859  -16.43510
      H1    -3.72089   -9.37015  -15.75315
       H    -3.75310   -9.34644  -19.68296
       O    -4.17545   -8.82856  -18.99046
      H1    -4.99934   -8.45586  -19.37878
       H    -2.14488  -15.78264  -16.30449
       O    -2.63939  -15.07924  -15.81170
      H1    -3.23031  -15.46776  -15.11941
       H    -2.66237  -13.44074  -13.69289
       O    -2.02207  -13.02981  -13.16508
      H1    -2.36330  -13.07703  -12.25884
       H    -6.54184  -13.90747  -18.63456
       O    -6.22522  -12.98462  -18.75373
      H1    -5.34958  -12.98162  -18.30624
       H    -7.41355  -12.26624  -17.68418
       O    -8.19030  -12.02536  -17.14638
      H1    -8.23097  -11.09811  -17.28501

