36
frame 8 | Written by MDAnalysis XYZWriter (release 2.4.3)
       H     3.23309   -4.38931  -17.99884
       O     3.99514   -4.89170  -17.78419
      H1     4.02859   -5.80013  -18.10978
       H     5.08950   -5.31752  -16.56534
       O     5.73000   -5.72294  -15.87222
      H1     6.59734   -5.57111  -16.26163
       H     2.74736   -9.38766  -16.01359
       O     3.03896   -8.47051  -15.99370
      H1     3.97061   -8.47927  -15.63541
       H     5.12488   -4.33887  -19.03394
       O     5.87157   -3.98075  -19.53521
      H1     5.45182   -3.24632  -19.97297
       H     4.01427   -7.92365  -17.42228
       O     4.51982   -7.68332  -18.18879
      H1     5.38301   -7.94070  -17.92353
       H     4.81256   -5.84316  -12.83005
       O     5.38238   -5.18718  -13.23986
      H1     5.46585   -5.26524  -14.18578
       H     1.80850   -4.59248  -19.20570
       O     1.38871   -4.20168  -18.41846
      H1     0.43567   -4.46418  -18.43889
       H     1.61809   -7.67420  -15.49098
       O     0.88845   -7.25777  -15.01134
      H1     0.88340   -6.30312  -15.27565
       H     1.57151   -4.28668  -15.42491
       O     0.68898   -4.57735  -15.68679
      H1     0.20572   -3.96423  -16.24615
       H     2.81738   -1.69907  -15.28610
       O     3.45716   -2.38321  -15.02670
      H1     3.41386   -2.37448  -14.01483
       H     8.13690   -3.32386  -17.17359
       O     7.91036   -4.00835  -17.79785
      H1     7.13732   -3.67009  -18.25663
       H     4.20888   -1.45023  -16.52377
       O     4.18135   -1.01794  -17.39221
      H1     5.05382   -0.92266  -17.71638

