36
frame 8 | Written by MDAnalysis XYZWriter (release 2.4.3)
       H    17.47323  -14.05567   -6.59758
       O    17.10408  -14.34324   -7.44898
      H1    17.11629  -13.56877   -8.04814
       H    18.75996  -14.84874   -8.18341
       O    19.57209  -15.40426   -8.29062
      H1    19.33447  -16.19301   -8.84344
       H    20.13336  -18.05504   -3.37261
       O    19.60745  -17.67263   -4.06894
      H1    18.80154  -17.39455   -3.65114
       H    16.85764  -14.54294   -0.23496
       O    16.98661  -13.69347   -0.63518
      H1    16.88193  -13.87817   -1.61232
       H    18.48037  -18.66395    1.93533
       O    18.29414  -19.46912    2.46966
      H1    17.49783  -19.78079    2.04287
       H    14.95051  -17.05080   -6.06940
       O    15.24168  -17.73738   -5.42095
      H1    15.39698  -18.45236   -6.08349
       H    14.49432  -18.43870   -1.63201
       O    15.00571  -17.63748   -1.72374
      H1    15.50975  -17.37242   -0.92397
       H    16.82349  -14.99211   -3.53344
       O    17.12741  -14.12695   -3.30861
      H1    16.39586  -13.63205   -3.62325
       H    17.40186  -16.77181    0.52381
       O    16.57083  -16.33768    0.31712
      H1    16.23879  -16.16673    1.24687
       H    19.84504  -13.07995   -5.23367
       O    18.85373  -13.09709   -5.13686
      H1    18.65195  -13.73602   -4.40471
       H    19.89880  -17.23112    0.67837
       O    19.02992  -17.59293    0.76212
      H1    19.01544  -18.30538    0.14062
       H    16.37436  -17.29156   -4.21589
       O    16.93911  -16.95175   -3.47207
      H1    16.56261  -17.23920   -2.65636

