36
frame 8 | Written by MDAnalysis XYZWriter (release 2.4.3)
       H     8.97857   -4.50944  -15.09047
       O     8.65622   -3.61804  -14.95020
      H1     7.75374   -3.59083  -14.60969
       H    13.12018    1.22380  -17.43238
       O    13.76333    1.47044  -16.72761
      H1    13.80819    0.77493  -16.07434
       H     9.05324   -1.35724  -19.84643
       O     9.67843   -1.51271  -19.12753
      H1    10.30187   -2.20799  -19.36204
       H    10.11682   -0.83398  -17.57776
       O    10.54055   -0.42043  -16.81215
      H1    10.35736   -0.99092  -16.07748
       H     9.72486    1.17509  -16.56812
       O     9.43883    2.02436  -16.21915
      H1     9.40292    1.82162  -15.31934
       H    13.07121   -2.59189  -17.06750
       O    12.46023   -2.07954  -17.61587
      H1    12.11406   -1.39855  -17.03248
       H     7.19463    0.53832  -14.74579
       O     6.30279    0.52451  -15.07933
      H1     6.40073    0.93817  -15.93231
       H     9.57399    0.08785  -13.74330
       O     8.93694    0.78564  -13.62154
      H1     8.85688    1.14597  -12.75807
       H    13.46068    0.60264  -19.66828
       O    12.72372    0.55706  -19.05299
      H1    12.72035   -0.42161  -18.83337
       H    11.01115   -1.49905  -13.68553
       O    10.15157   -1.38770  -14.18282
      H1     9.66488   -2.17964  -14.31929
       H    10.72466   -4.09100  -19.55807
       O    11.42710   -3.49882  -19.78814
      H1    11.76064   -3.09519  -18.93204
       H     8.13690   -3.32386  -17.17359
       O     7.91036   -4.00835  -17.79785
      H1     7.13732   -3.67009  -18.25663

