36
frame 8 | Written by MDAnalysis XYZWriter (release 2.4.3)
       H   -11.53506  -18.87566   -4.44330
       O   -10.95131  -19.35013   -5.02119
      H1   -11.43102  -20.05072   -5.49963
       H   -11.95568  -19.17574   -9.05716
       O   -11.91255  -19.26955   -8.11760
      H1   -12.60739  -18.66791   -7.82879
       H   -17.76019  -15.56520   -7.27383
       O   -17.18727  -15.07137   -6.63275
      H1   -16.46981  -15.61749   -6.37135
       H   -14.77184  -18.69761   -6.73855
       O   -14.39314  -17.95336   -7.28414
      H1   -13.96227  -17.31078   -6.68812
       H    -9.40603  -15.01363   -5.09223
       O    -9.61801  -14.01427   -4.99339
      H1   -10.42418  -13.97575   -4.50749
       H   -14.98242  -12.15397   -4.10470
       O   -14.30155  -12.73700   -3.62848
      H1   -14.57308  -12.73582   -2.69908
       H   -12.75148  -13.17344   -7.55725
       O   -12.30486  -14.05898   -7.57931
      H1   -11.30335  -13.77840   -7.60607
       H   -13.11721  -18.28221   -2.98684
       O   -12.37075  -17.79384   -3.38440
      H1   -12.68557  -17.14689   -3.98914
       H   -12.27686  -16.22603   -0.87444
       O   -11.79263  -15.78583   -1.56126
      H1   -11.83635  -16.49660   -2.20143
       H   -15.49845  -14.23140   -3.90040
       O   -15.48750  -15.16821   -3.82742
      H1   -15.14459  -15.25747   -2.91023
       H   -12.39074  -13.13814   -3.35243
       O   -11.59061  -13.62624   -3.13337
      H1   -11.87653  -14.31348   -2.51018
       H   -14.19087  -15.70080   -4.71265
       O   -13.34492  -15.94544   -5.16169
      H1   -12.90263  -15.18801   -5.42449

