36
frame 8 | Written by MDAnalysis XYZWriter (release 2.4.3)
       H    17.09654   16.21493    2.20288
       O    17.16917   16.29568    1.25324
      H1    17.16211   15.36000    1.04335
       H    13.37625   18.90934   -0.54038
       O    14.03630   19.06225   -1.15464
      H1    14.29715   18.21699   -1.58418
       H    13.03363   19.01527    3.73249
       O    13.79337   18.50401    3.46684
      H1    14.42961   19.22409    3.40079
       H    10.60758   18.31532   -2.38728
       O    11.18925   18.69491   -3.07013
      H1    12.07123   18.77430   -2.73079
       H    13.13909   15.84195    2.22504
       O    12.52897   15.95297    1.48126
      H1    12.51641   16.92111    1.30222
       H    12.38328   15.17556   -0.11598
       O    12.53737   14.59993   -0.89436
      H1    11.69204   14.69678   -1.43894
       H    16.39063   17.75564    0.79184
       O    16.13826   18.69473    0.73649
      H1    15.34267   18.81121    0.21224
       H    11.60526   19.17906    0.95445
       O    12.35871   18.63776    0.96506
      H1    12.57304   18.75259    1.87164
       H    17.41355   15.98552    4.05667
       O    16.73372   16.66282    4.12531
      H1    17.13683   17.44622    4.47579
       H    17.64592   19.06063   -0.37252
       O    18.53458   19.24693   -0.70006
      H1    18.49903   19.44182   -1.66429
       H    16.74426   18.79623   -3.60924
       O    17.69402   18.96447   -3.39499
      H1    17.94547   19.52868   -4.09242
       H    14.68884   17.83701   -4.18502
       O    15.07538   17.48561   -3.37306
      H1    15.08904   16.50784   -3.41870

