36
frame 7 | Written by MDAnalysis XYZWriter (release 2.4.3)
       H     8.85196   13.48399  -12.01382
       O     8.39274   13.90910  -12.72539
      H1     7.52918   13.41652  -12.73292
       H     9.51377   11.12553   -8.03575
       O     9.84063   12.03602   -8.27583
      H1     9.63025   12.56249   -7.49753
       H    10.10522   12.34045  -10.24906
       O    10.26996   12.96122  -10.95193
      H1    10.47469   12.36551  -11.72575
       H     4.29769    9.39922  -11.60890
       O     5.19574    8.97490  -11.33169
      H1     5.90393    9.57453  -11.65767
       H     7.49975   16.24239  -10.66153
       O     6.82474   15.79166  -11.16650
      H1     7.23992   15.10625  -11.67212
       H     5.37762   13.60235  -13.66921
       O     5.84724   13.01926  -13.04523
      H1     5.42547   13.27067  -12.16830
       H     3.70988   16.67272   -8.05339
       O     4.05095   15.92367   -8.59407
      H1     5.00855   15.68191   -8.27478
       H     5.29402   14.80608  -10.69613
       O     4.63559   14.12614  -10.82325
      H1     3.97802   14.28887  -10.16916
       H     6.35665   10.88733   -7.68723
       O     6.34091   11.84521   -7.41933
      H1     5.39995   12.06127   -7.39711
       H     7.24572   11.08390  -11.04716
       O     7.12021   10.76984  -11.93174
      H1     6.58438   11.51982  -12.25537
       H     6.81505   15.61531   -7.59010
       O     6.26300   14.87457   -7.91998
      H1     6.66650   14.57604   -8.78064
       H     5.83679   12.85442  -10.05219
       O     6.81989   12.68909   -9.97871
      H1     6.91136   12.43752   -9.07935

