36
frame 8 | Written by MDAnalysis XYZWriter (release 2.4.3)
       H    -1.97442    8.39375    8.34900
       O    -2.24027    9.20146    8.72891
      H1    -2.59764    9.01105    9.62073
       H    -3.66345    4.37638   12.45404
       O    -3.08795    3.76184   11.98169
      H1    -3.33645    2.91373   12.36366
       H     1.71169    3.44440    9.57125
       O     2.05492    4.17548   10.17468
      H1     2.74419    3.66348   10.63226
       H    -1.25367    5.20203    9.82109
       O    -1.51879    4.47364    9.32739
      H1    -2.43653    4.25592    9.44949
       H    -0.44205    7.64986   10.28838
       O    -0.53127    6.70504   10.54960
      H1    -0.97792    6.82184   11.40870
       H    -1.55615    5.81146    8.07846
       O    -1.64678    6.51545    7.40366
      H1    -0.91392    6.32539    6.80957
       H    -5.02577    4.95032    8.60537
       O    -5.39072    5.62784    8.00235
      H1    -4.91716    5.47989    7.19020
       H     1.28486    6.03125   12.41966
       O     1.85413    6.30000   13.09049
      H1     1.36985    6.70311   13.82637
       H    -0.72425    2.91741    7.80232
       O    -0.06916    2.49132    7.18762
      H1     0.34061    3.19091    6.72792
       H    -1.84818    6.84872   13.43223
       O    -1.94866    7.26549   12.58212
      H1    -1.74146    8.18202   12.80597
       H     0.13109    3.53397   10.99982
       O    -0.31534    3.52867   11.85453
      H1    -1.27175    3.53176   11.70143
       H    -4.20760    3.67501   10.62636
       O    -4.58607    3.66523    9.75559
      H1    -5.28731    2.98740    9.78937

