36
frame 8 | Written by MDAnalysis XYZWriter (release 2.4.3)
       H    -3.24058   -2.87549  -17.67997
       O    -3.18731   -2.72422  -16.62906
      H1    -3.08826   -1.74700  -16.58898
       H     1.15565   -1.09078  -14.82152
       O     1.32916   -1.04664  -15.76224
      H1     1.69352   -0.11984  -15.86984
       H    -2.31265   -5.56129  -15.68426
       O    -2.54540   -5.32354  -16.59465
      H1    -2.90593   -4.45409  -16.59375
       H    -0.65323   -0.07542  -18.97729
       O     0.17628   -0.61694  -19.04971
      H1    -0.04342   -1.43107  -18.62107
       H    -1.78538    1.44841  -13.57894
       O    -1.09015    1.35374  -14.30524
      H1    -0.48008    0.62246  -13.98167
       H     0.49045   -0.38616  -12.23726
       O     0.29965   -0.66719  -13.10081
      H1    -0.29887   -1.45256  -12.97229
       H    -1.88225    0.35865  -17.00514
       O    -2.54485    0.20524  -16.29209
      H1    -2.19047    0.63612  -15.48100
       H    -0.03431   -2.09777  -16.54621
       O    -0.53690   -2.66409  -17.20577
      H1    -1.44997   -2.59911  -16.94926
       H     1.80850   -4.59248  -19.20570
       O     1.38871   -4.20168  -18.41846
      H1     0.43567   -4.46418  -18.43889
       H     1.57151   -4.28668  -15.42491
       O     0.68898   -4.57735  -15.68679
      H1     0.20572   -3.96423  -16.24615
       H     2.81738   -1.69907  -15.28610
       O     3.45716   -2.38321  -15.02670
      H1     3.41386   -2.37448  -14.01483
       H    -1.66573   -5.93879  -13.66833
       O    -1.77462   -5.00584  -13.93110
      H1    -0.97421   -4.95387  -14.49613

