36
frame 7 | Written by MDAnalysis XYZWriter (release 2.4.3)
       H    -9.24882   -2.35873    2.39919
       O    -8.29173   -2.26374    2.66316
      H1    -8.04276   -1.31780    2.62367
       H    -9.73509    0.75791    3.42031
       O    -9.66520    1.37502    2.64670
      H1    -9.04176    1.07215    1.97232
       H   -10.75474   -1.02852    4.40163
       O    -9.95617   -0.52812    4.54171
      H1   -10.17210   -0.08539    5.35984
       H    -7.02063    2.88326    4.71414
       O    -6.73801    3.29270    3.88246
      H1    -6.00316    3.83094    4.13622
       H   -10.75430    1.20640   -1.17133
       O   -10.59224    1.37273   -2.09778
      H1   -11.19981    2.08194   -2.37761
       H    -6.36929   -0.22129    3.86276
       O    -6.81144    0.04806    3.01204
      H1    -7.09964    0.96958    3.16284
       H   -11.29976    3.66746    1.08859
       O   -11.62405    3.33317    0.22523
      H1   -12.00056    2.47969    0.51726
       H    -7.45976   -2.48965   -0.80072
       O    -7.53578   -1.77897   -0.16911
      H1    -8.07308   -2.16913    0.59893
       H   -12.43638    0.17771    1.46474
       O   -12.56975    1.13312    1.59736
      H1   -11.71524    1.40145    2.01197
       H    -9.63068    4.53373    2.91262
       O   -10.25602    4.10105    2.35465
      H1   -10.02916    3.16335    2.51944
       H    -9.94998    3.41482   -0.41574
       O    -8.92650    3.41017   -0.42157
      H1    -8.59073    3.85216   -1.23471
       H    -7.97215    0.03115   -0.16693
       O    -8.44602    0.73779    0.30044
      H1    -8.27272    1.62920   -0.02405

