36
frame 8 | Written by MDAnalysis XYZWriter (release 2.4.3)
       H   -11.53506  -18.87566   -4.44330
       O   -10.95131  -19.35013   -5.02119
      H1   -11.43102  -20.05072   -5.49963
       H   -11.23231  -16.44137  -11.92067
       O   -11.38459  -16.40928  -10.98008
      H1   -10.53431  -16.56546  -10.55770
       H   -11.95568  -19.17574   -9.05716
       O   -11.91255  -19.26955   -8.11760
      H1   -12.60739  -18.66791   -7.82879
       H    -9.83524  -15.62565   -8.06543
       O    -9.65323  -14.65514   -7.84074
      H1    -9.46698  -14.63497   -6.88446
       H   -14.77184  -18.69761   -6.73855
       O   -14.39314  -17.95336   -7.28414
      H1   -13.96227  -17.31078   -6.68812
       H    -8.41850  -18.78691   -8.57980
       O    -7.63271  -19.38526   -8.64427
      H1    -7.59145  -19.95557   -9.38893
       H   -13.65290  -19.29108  -11.53276
       O   -14.61076  -19.10949  -11.71423
      H1   -14.72292  -18.56445  -12.48566
       H   -10.43830  -18.11588   -7.93104
       O    -9.72033  -17.48270   -7.88916
      H1    -9.71026  -17.36835   -6.93150
       H   -13.11721  -18.28221   -2.98684
       O   -12.37075  -17.79384   -3.38440
      H1   -12.68557  -17.14689   -3.98914
       H   -11.50448  -18.46298  -11.40562
       O   -11.88434  -19.29371  -11.12700
      H1   -11.14033  -19.88119  -11.06425
       H   -15.28745  -17.88825   -8.85359
       O   -15.91092  -17.95196   -9.55729
      H1   -15.40730  -18.28767  -10.25646
       H   -14.19087  -15.70080   -4.71265
       O   -13.34492  -15.94544   -5.16169
      H1   -12.90263  -15.18801   -5.42449

