36
frame 7 | Written by MDAnalysis XYZWriter (release 2.4.3)
       H    17.61523   11.64622   12.60702
       O    17.86973   11.70942   13.50102
      H1    18.64591   11.18827   13.54618
       H    19.87996    9.10153   17.65198
       O    19.40029    8.28753   17.63978
      H1    18.50493    8.48326   18.02503
       H    15.01860    6.70383   18.03934
       O    15.96558    6.50797   18.16067
      H1    16.48099    6.20945   17.40035
       H    17.27065   12.32665   17.98997
       O    16.46355   11.82558   17.82983
      H1    16.31911   11.99880   16.87490
       H    18.81738   13.79710   17.95278
       O    19.01265   12.95150   18.49953
      H1    19.15720   13.20048   19.40899
       H    13.22213    7.81378   19.82338
       O    13.40653    7.67983   18.84458
      H1    12.67956    7.12131   18.46126
       H    18.97324    6.85269   14.97007
       O    19.84872    7.06577   14.65783
      H1    20.25579    7.50536   15.42843
       H    17.00096    5.28978   15.36914
       O    17.09297    6.15132   15.81213
      H1    16.41991    6.74092   15.36600
       H    16.60522   11.51225   14.91489
       O    15.87023   11.99052   15.27158
      H1    16.01089   12.91205   15.03679
       H    14.64728    7.78614   15.03393
       O    15.43875    8.24319   15.25766
      H1    15.37983    8.55267   16.17319
       H    16.74817   10.16720   18.36627
       O    17.20179    9.42365   18.79669
      H1    16.59074    8.72691   18.92782
       H    12.49628   10.80933   18.52117
       O    12.04930   10.09931   18.05045
      H1    12.53028    9.28051   18.28185

