36
frame 9 | Written by MDAnalysis XYZWriter (release 2.4.3)
       H    -9.57654   19.76010   -6.86814
       O    -9.36325   19.06326   -6.24295
      H1   -10.07724   19.12218   -5.59167
       H   -11.54572   19.95204   -4.37910
       O   -11.13048   19.10257   -4.38623
      H1   -11.77250   18.46436   -4.78352
       H   -13.16376   15.39611   -3.40652
       O   -14.01388   14.94127   -3.54459
      H1   -14.72595   15.53264   -3.25997
       H   -14.00313   14.19271   -5.05603
       O   -14.32495   13.76005   -5.88072
      H1   -13.74828   13.94016   -6.60824
       H   -11.27739   14.81733   -4.33530
       O   -11.16809   15.72294   -3.90111
      H1   -10.24765   15.96960   -4.14135
       H   -10.43967   17.09541   -8.29334
       O   -10.98557   17.80966   -8.63752
      H1   -11.08551   18.36208   -7.89191
       H    -8.73202   17.53829   -6.77537
       O    -8.82568   16.55156   -6.96579
      H1    -7.91205   16.40927   -7.11967
       H   -14.26724   16.86206   -9.75162
       O   -14.37483   15.92323   -9.62919
      H1   -13.53647   15.66301   -9.96385
       H    -8.66189   16.47312   -5.12734
       O    -8.57991   16.30104   -4.16590
      H1    -8.20420   17.14813   -3.88540
       H   -13.36341   16.97836   -6.11329
       O   -12.41570   16.99692   -6.04607
      H1   -12.15825   16.37135   -5.35583
       H   -12.87671   15.42228   -8.23311
       O   -12.24921   14.95638   -7.70883
      H1   -12.04517   15.69956   -7.06504
       H   -15.31251   17.72149   -7.14259
       O   -15.07061   16.85020   -6.77696
      H1   -15.62287   16.33209   -7.30387

