36
frame 8 | Written by MDAnalysis XYZWriter (release 2.4.3)
       H    17.09208   18.69385   13.26489
       O    17.06586   18.00156   13.92608
      H1    17.92022   18.16201   14.33808
       H    18.77361   17.28753   16.00983
       O    19.21475   18.01995   15.55910
      H1    19.96341   17.59572   15.15138
       H    14.77518   17.17928    7.95694
       O    14.95967   17.72005    8.72654
      H1    15.86639   17.87497    8.91036
       H    16.94495   14.89375    9.61235
       O    17.50576   15.67434    9.59527
      H1    17.63764   15.94341   10.51503
       H    16.59285   17.11935   15.67621
       O    16.82574   16.87148   16.58284
      H1    16.07293   16.49169   17.01268
       H    17.03505   12.23682    9.63550
       O    16.62792   12.72773    8.91263
      H1    17.03826   12.22353    8.13870
       H    19.15384   13.43460   14.49098
       O    18.27338   13.50686   14.78911
      H1    17.81917   12.92100   14.11311
       H    15.26032   15.54829   12.99937
       O    14.30026   15.39741   12.99439
      H1    14.14506   14.49436   12.67624
       H    18.39745   16.50164    8.19020
       O    19.22407   16.87427    7.75895
      H1    18.98388   17.52454    7.18027
       H    13.80155   16.54039   11.73265
       O    13.52522   17.25290   11.15214
      H1    14.15373   17.28420   10.43699
       H    17.44729   16.52696   12.80209
       O    17.34706   15.66412   12.31102
      H1    17.48722   14.97090   12.99447
       H    19.40406   13.42359   11.23630
       O    19.54389   14.13240   10.59085
      H1    18.71129   14.54480   10.62095

