36
frame 0 | Written by MDAnalysis XYZWriter (release 2.4.3)
       H    17.36499   -1.50474   11.88717
       O    17.28384   -2.02809   12.68453
      H1    16.36536   -2.01196   12.91221
       H    14.07006   -7.98516   11.40223
       O    13.45323   -8.14476   10.66594
      H1    13.79824   -7.57357    9.98407
       H    18.76949   -4.79813    7.23019
       O    18.58650   -4.08564    7.87319
      H1    17.80855   -4.37742    8.41643
       H    15.91640   -5.24383    9.13655
       O    16.68083   -4.83199    9.51515
      H1    17.12383   -5.58120    9.90808
       H    14.63988   -7.56152   13.57645
       O    15.14508   -7.50443   12.70445
      H1    15.53050   -6.59743   12.69344
       H    17.97507   -9.00452   13.99506
       O    17.94293   -9.86783   13.52530
      H1    17.33394   -9.72070   12.81799
       H    17.75223   -5.41983   15.96573
       O    17.63447   -4.55251   16.42026
      H1    18.50854   -4.14220   16.31645
       H    18.42553   -7.24976   11.29889
       O    18.28492   -6.33897   11.59720
      H1    17.87271   -6.52280   12.46766
       H    18.71905   -6.48108   14.62827
       O    18.02629   -6.83868   15.20371
      H1    18.41008   -7.33453   15.91573
       H    16.17876   -4.56524   13.89194
       O    16.16767   -4.72319   12.93379
      H1    16.92054   -4.24882   12.55017
       H    15.30139  -10.32546   10.94967
       O    15.82526  -10.32098   11.76599
      H1    15.41895   -9.71631   12.33501
       H    18.38372   -8.42166    8.96381
       O    18.43159   -8.65550    9.92022
      H1    18.17244   -9.63978    9.93115

