36
frame 8 | Written by MDAnalysis XYZWriter (release 2.4.3)
       H    14.97463    2.62279  -17.36329
       O    15.63613    3.15430  -17.83846
      H1    16.13681    2.58319  -18.42788
       H    15.14627    6.94484  -17.06188
       O    15.42134    7.65230  -17.75960
      H1    15.92617    7.13045  -18.39311
       H    17.14721   -0.01090  -13.92536
       O    16.82169    0.65479  -14.51639
      H1    17.36571    0.64315  -15.29202
       H    18.45967    5.06317  -18.44994
       O    19.16227    4.67958  -17.83492
      H1    19.99021    4.67953  -18.27284
       H    17.99659    8.52652  -18.42444
       O    18.23720    8.90922  -17.58845
      H1    19.06169    9.44373  -17.82954
       H    16.49252    4.71042  -19.26942
       O    16.82979    5.62706  -19.19359
      H1    16.64678    6.12201  -20.10297
       H    17.29830    6.97757  -12.91314
       O    18.17513    6.59204  -12.71499
      H1    18.05917    5.63313  -12.96119
       H    18.27543    0.38056  -18.44453
       O    18.29518   -0.45935  -18.94556
      H1    17.65574   -0.42131  -19.65806
       H    18.51599    5.98453  -16.45172
       O    17.82666    6.19923  -15.85083
      H1    17.97791    7.12636  -15.55792
       H    16.20993    5.57635  -16.05584
       O    15.27292    5.37535  -16.02295
      H1    15.18132    4.66764  -16.65505
       H    19.48792    1.94154  -17.49409
       O    18.51890    1.93943  -17.52523
      H1    18.25751    2.88038  -17.57507
       H    17.82702    3.21954  -13.62000
       O    18.30092    3.67874  -12.86678
      H1    19.20924    3.45044  -12.95454

