36
frame 9 | Written by MDAnalysis XYZWriter (release 2.4.3)
       H    12.33343   -8.26533   -9.21727
       O    12.43276   -7.94862   -8.31279
      H1    13.26198   -8.37886   -8.03410
       H     7.21973   -9.61688  -10.45486
       O     6.93828   -9.01162   -9.74793
      H1     7.69768   -8.66708   -9.32917
       H     9.13407  -10.50885   -4.11929
       O     9.55383  -11.37150   -4.20071
      H1    10.02213  -11.38330   -5.03073
       H     7.09878   -5.91386   -7.95863
       O     6.46645   -5.84626   -7.25765
      H1     6.25901   -4.90604   -7.11478
       H    12.38506  -10.73857   -5.08318
       O    12.45641  -11.46927   -5.74334
      H1    12.07113  -11.01817   -6.51046
       H     8.58998   -5.67915   -5.45892
       O     9.45702   -6.12404   -5.63419
      H1     9.28356   -6.68389   -6.40412
       H     8.81868  -12.20464   -8.37916
       O     9.76794  -12.33469   -8.37367
      H1    10.04799  -12.50974   -9.26006
       H     9.61278   -8.66626   -7.36516
       O     9.11917   -7.94062   -7.73293
      H1     9.79354   -7.50435   -8.22755
       H     6.36203  -11.50456   -7.95083
       O     6.96722  -10.84109   -7.79547
      H1     6.89530  -10.25549   -8.56925
       H    11.45477   -9.73295   -8.21883
       O    10.89432  -10.12627   -7.56392
      H1    10.44380  -10.93281   -7.99977
       H     8.32249   -8.45795   -4.01075
       O     7.84559   -9.28930   -3.82150
      H1     7.15672   -9.17442   -3.20684
       H    11.57981   -7.80459   -4.15515
       O    11.24775   -6.96338   -3.75815
      H1    10.46416   -6.70892   -4.29298

