36
frame 0 | Written by MDAnalysis XYZWriter (release 2.4.3)
       H     9.19171   17.38706  -12.87713
       O     8.98508   16.47154  -12.96047
      H1     9.79878   16.00392  -12.88133
       H     7.40748   16.28531  -11.79900
       O     6.49190   16.09880  -11.65669
      H1     6.53144   16.29796  -10.71038
       H    13.29402   19.06971   -6.71097
       O    13.77119   18.66585   -5.98863
      H1    13.05800   18.17798   -5.53270
       H    11.19417   16.01915   -7.41648
       O    12.14830   16.05493   -7.41414
      H1    12.34828   15.17180   -7.05895
       H     9.49376   16.93504   -8.45804
       O     9.35377   16.14260   -7.91640
      H1     9.47918   15.32871   -8.45705
       H     5.79974   16.66180   -8.29220
       O     6.52469   16.66262   -8.94589
      H1     7.33569   16.40966   -8.48838
       H     6.50238   18.14147  -10.19680
       O     6.36311   19.00703  -10.51618
      H1     5.38581   19.07002  -10.52374
       H     8.38616   19.49872   -8.34448
       O     9.27633   19.05506   -8.50927
      H1     9.41675   19.06178   -9.46587
       H     9.17919   16.69067   -5.81922
       O     9.19583   17.56127   -5.40659
      H1     9.45499   18.15305   -6.08012
       H    10.77764   18.79176  -11.31563
       O     9.83499   18.57944  -11.13432
      H1     9.34217   19.39975  -11.32401
       H    12.07580   17.55857   -3.48175
       O    11.79075   17.41828   -4.38135
      H1    10.81413   17.54821   -4.42159
       H    10.96232   16.70918  -11.82215
       O    11.38639   15.85882  -11.99625
      H1    11.98806   16.06511  -12.72982

