36
frame 9 | Written by MDAnalysis XYZWriter (release 2.4.3)
       H   -14.76777  -13.44750   -0.50881
       O   -15.20070  -13.83423   -1.29442
      H1   -15.97491  -14.20316   -0.88183
       H   -16.05058  -10.47461   -0.79062
       O   -16.52429   -9.88236   -0.17879
      H1   -15.96174  -10.05787    0.62283
       H   -11.57653  -14.48311    2.17173
       O   -11.34385  -13.64833    1.72204
      H1   -10.41547  -13.46182    1.91466
       H   -12.20742  -10.76313    2.39786
       O   -12.37789  -10.95524    1.45947
      H1   -12.32358  -11.92069    1.31529
       H   -13.34287  -13.44494    1.58176
       O   -14.25075  -13.13241    1.29352
      H1   -14.78015  -13.12606    2.08847
       H   -17.23114  -14.40065    1.68575
       O   -17.44519  -14.28430    0.76125
      H1   -18.29231  -13.87774    0.73246
       H   -14.88502   -9.15837    2.46612
       O   -14.96197  -10.08360    2.20456
      H1   -14.10381  -10.29663    1.85953
       H   -17.75061  -15.71060   -0.41703
       O   -17.59214  -16.66812   -0.53669
      H1   -16.97225  -16.89657    0.15782
       H   -14.79443  -13.38512   -4.41478
       O   -14.29827  -14.04084   -3.84420
      H1   -14.58238  -13.99803   -2.90347
       H   -14.36625  -17.14514   -1.77302
       O   -14.83168  -17.58946   -2.47900
      H1   -14.75720  -18.48198   -2.11445
       H   -15.64422  -15.28812   -3.96678
       O   -16.47035  -15.75120   -4.13075
      H1   -16.19076  -16.55363   -3.63816
       H   -13.68355  -15.65173   -0.27621
       O   -13.38874  -16.56542   -0.51407
      H1   -14.03838  -17.03431   -0.07307

