36
frame 0 | Written by MDAnalysis XYZWriter (release 2.4.3)
       H    18.40386  -10.88826   15.01925
       O    18.49601  -11.27390   15.88154
      H1    17.76187  -11.91948   15.88235
       H    13.34459  -12.85803   17.58961
       O    13.28301  -12.21651   16.88213
      H1    13.96762  -11.52262   16.98024
       H    12.65832   -9.45144   19.07889
       O    13.29423   -9.24982   19.77018
      H1    13.62699   -8.33531   19.64276
       H    14.25033   -9.00176   15.69169
       O    13.92619   -8.74266   14.83189
      H1    13.53241   -9.58217   14.51729
       H    17.46776   -9.00760   19.07524
       O    17.33083   -9.73895   18.47733
      H1    18.04715  -10.37503   18.63305
       H    15.60843   -9.74849   17.53544
       O    14.63204   -9.76869   17.37912
      H1    14.36805   -9.68086   18.32248
       H    19.63913   -9.13367   16.40927
       O    19.15817   -8.51468   16.95816
      H1    18.48956   -9.14296   17.38413
       H    16.26803   -4.59964   17.78962
       O    15.61282   -4.41257   18.49361
      H1    14.72890   -4.66811   18.15285
       H    17.97507   -9.00452   13.99506
       O    17.94293   -9.86783   13.52530
      H1    17.33394   -9.72070   12.81799
       H    17.75223   -5.41983   15.96573
       O    17.63447   -4.55251   16.42026
      H1    18.50854   -4.14220   16.31645
       H    18.71905   -6.48108   14.62827
       O    18.02629   -6.83868   15.20371
      H1    18.41008   -7.33453   15.91573
       H    18.57469   -5.71769   20.11114
       O    19.06256   -5.38873   19.32381
      H1    19.07826   -4.40552   19.29691

