36
frame 9 | Written by MDAnalysis XYZWriter (release 2.4.3)
       H   -11.21912    2.17554   17.74109
       O   -10.41189    2.24347   17.18650
      H1    -9.72355    1.87620   17.84842
       H    -7.04093    1.56152   14.51669
       O    -6.73254    2.43947   14.96821
      H1    -7.39447    3.03046   15.13052
       H   -12.87588    2.64200   18.88914
       O   -12.60765    1.71384   18.69348
      H1   -12.80828    1.29696   19.59248
       H    -9.39803   -2.08072   19.55328
       O    -9.56885   -1.22705   19.15070
      H1   -10.39391   -1.27972   18.70869
       H    -8.69856   -1.20048   17.30109
       O    -8.57359   -1.67263   16.44635
      H1    -7.73407   -2.20281   16.61146
       H    -8.76569    0.51266   19.36758
       O    -8.49237    1.46618   19.26205
      H1    -8.85633    1.75826   20.11461
       H   -13.87225    4.73068   18.83105
       O   -13.13729    4.26746   19.21719
      H1   -12.33278    4.62982   18.81682
       H   -12.30371   -0.40169   17.75871
       O   -11.87323   -1.31237   17.77632
      H1   -11.83705   -1.56190   16.88175
       H    -9.92226    4.38305   14.85720
       O    -9.04356    4.48515   15.16595
      H1    -9.07461    5.23896   15.73949
       H   -10.59684    4.07290   17.37248
       O   -10.89411    4.96174   17.69797
      H1   -10.44413    5.15305   18.49218
       H    -5.62393    1.03259   17.61268
       O    -5.23225    1.26398   16.77335
      H1    -5.97941    1.63163   16.25224
       H   -10.37044    1.04586   15.53286
       O   -10.78389    0.62545   14.80043
      H1   -11.00527   -0.22069   15.14334

