36
frame 1 | Written by MDAnalysis XYZWriter (release 2.4.3)
       H     5.91429   -6.95085    3.84585
       O     6.23463   -6.06475    3.66165
      H1     5.41790   -5.45830    3.92748
       H     5.76571   -2.59937    1.91234
       O     5.85288   -3.30888    1.30219
      H1     5.65276   -2.87405    0.45648
       H     7.21892   -6.27977    5.08621
       O     7.76895   -6.84066    5.71954
      H1     7.39691   -7.73005    5.66392
       H     7.51399   -5.26646    2.82516
       O     8.29723   -4.85315    2.46878
      H1     7.97130   -4.14743    1.90619
       H     8.93203   -8.31799    0.89370
       O     8.67782   -9.22197    0.79910
      H1     8.39588   -9.38841   -0.12590
       H     8.93061   -4.82295   -0.45748
       O     8.53986   -4.28583   -1.14489
      H1     9.25473   -3.99026   -1.74150
       H     9.38213   -6.95959    5.08736
       O    10.34958   -6.94182    4.99215
      H1    10.57849   -7.66382    4.40594
       H    10.44251   -0.55890    1.46137
       O    10.06315   -1.42336    1.32655
      H1    10.64187   -2.07344    1.82620
       H    12.62686   -4.00007    2.21049
       O    12.00427   -3.32585    2.51333
      H1    11.40261   -3.67601    3.18476
       H     9.62630   -4.35647    3.70843
       O    10.30434   -4.08359    4.35036
      H1    10.72080   -4.96195    4.63228
       H    10.40976   -6.41184    0.60611
       O     9.40788   -6.45193    0.44525
      H1     9.04912   -6.13450    1.32822
       H     8.68343   -4.40842    7.35988
       O     9.01987   -3.61547    6.82450
      H1     9.38638   -3.87223    6.00531

