36
frame 10 | Written by MDAnalysis XYZWriter (release 2.4.3)
       H    -7.92119  -17.62042  -11.69252
       O    -8.47221  -18.32815  -11.39285
      H1    -8.13706  -19.16512  -11.74049
       H    -9.01531  -19.23619   -7.00812
       O    -8.62584  -19.45454   -6.13389
      H1    -9.34481  -19.89400   -5.63151
       H    -8.22553  -18.72153  -14.86925
       O    -8.13905  -17.78721  -14.84986
      H1    -7.47968  -17.64946  -14.07745
       H   -10.71139  -16.92208  -12.01720
       O   -10.72918  -16.69584  -11.04000
      H1    -9.86772  -17.09007  -10.76121
       H    -5.70111  -18.24765  -12.52285
       O    -6.04546  -17.41116  -12.86556
      H1    -5.54467  -16.74031  -12.40351
       H    -8.98626  -16.13202   -7.90165
       O    -8.29397  -15.45910   -7.99489
      H1    -8.55143  -15.01975   -7.23738
       H    -6.22440  -17.06612   -7.86919
       O    -6.60800  -17.93781   -7.94475
      H1    -7.55072  -17.84292   -8.11643
       H    -9.03398  -18.80666   -9.74475
       O    -9.38138  -18.89157   -8.83898
      H1    -9.74197  -19.76545   -8.90954
       H    -8.06244  -14.71145  -11.09747
       O    -7.58923  -15.52671  -10.75342
      H1    -7.71537  -15.47298   -9.79023
       H   -11.00320  -16.24904  -14.23311
       O   -10.60528  -17.01534  -13.84242
      H1    -9.77417  -17.19534  -14.33531
       H   -11.74777  -18.54763  -10.69974
       O   -12.43808  -19.12626  -10.26060
      H1   -12.05158  -20.01525  -10.44707
       H    -4.27125  -18.74086  -10.07565
       O    -5.10194  -19.19654   -9.85377
      H1    -5.62407  -18.53566   -9.31474

