36
frame 9 | Written by MDAnalysis XYZWriter (release 2.4.3)
       H    18.00781  -13.72302   -6.63957
       O    17.97596  -14.03463   -7.54973
      H1    17.56530  -13.34810   -8.07786
       H    19.10790  -15.64277   -8.32503
       O    19.65332  -16.43066   -8.20029
      H1    20.11922  -16.42413   -9.04256
       H    19.10298  -10.12133   -7.57915
       O    18.16503  -10.21072   -7.72484
      H1    17.76403  -10.24749   -6.86172
       H    18.49599  -13.79258   -0.30652
       O    19.13329  -13.03375   -0.31778
      H1    19.06429  -12.62299    0.58168
       H    17.32394  -12.26968   -3.80746
       O    16.54407  -11.81661   -3.40259
      H1    16.43865  -10.98836   -3.87927
       H    14.60168  -12.78554   -8.86718
       O    14.88322  -12.31171   -8.10637
      H1    15.78460  -12.02096   -8.51224
       H    14.52829  -10.51015   -8.26047
       O    14.83558   -9.56199   -8.31951
      H1    15.28664   -9.46437   -7.48074
       H    14.80245  -14.27914   -5.84003
       O    15.25074  -14.89226   -6.42216
      H1    15.96603  -14.44812   -6.82756
       H    19.34813  -11.85879   -5.31859
       O    18.85342  -12.64002   -4.96493
      H1    19.60089  -13.25364   -4.73209
       H    17.66318  -11.18297   -9.07070
       O    17.14314  -11.99325   -9.43610
      H1    16.64016  -11.65142  -10.19016
       H    16.60788   -9.06099   -5.09631
       O    17.31131   -9.68170   -5.13206
      H1    18.14487   -9.15738   -5.12714
       H    17.74557  -10.38987   -2.01282
       O    18.33262  -10.52152   -1.26454
      H1    18.57956  -11.46925   -1.16587

