36
frame 10 | Written by MDAnalysis XYZWriter (release 2.4.3)
       H    -0.66236   -1.95800   -3.39084
       O    -0.69356   -1.97694   -2.41810
      H1    -0.01059   -1.47058   -1.94379
       H     1.72477    1.44648   -4.53104
       O     1.57378    2.41793   -4.58004
      H1     0.74888    2.54126   -5.02815
       H     1.54030   -4.79537   -5.26717
       O     2.20228   -4.05214   -5.28962
      H1     2.18887   -3.81638   -4.32775
       H    -0.47894   -3.48050   -8.64754
       O    -0.53423   -2.62324   -9.01360
      H1    -1.27994   -2.18991   -8.58367
       H     1.33415   -2.67194   -5.83078
       O     0.91151   -1.78744   -5.76936
      H1     1.01380   -1.37730   -6.62546
       H     1.43034   -4.97542   -8.80064
       O     0.55842   -4.99462   -8.31705
      H1     0.84211   -5.05005   -7.42838
       H     5.47817   -3.38426   -8.30527
       O     4.56701   -3.30350   -7.98306
      H1     4.06102   -2.64440   -8.46281
       H     3.02010   -0.42648   -3.36068
       O     2.43056   -0.04042   -4.03355
      H1     1.88384   -0.79426   -4.41276
       H    -0.80854   -2.72186   -5.75099
       O    -1.57056   -2.86910   -5.19244
      H1    -2.33261   -2.59902   -5.67454
       H     0.96148    1.23713   -9.58155
       O     1.62307    0.77111  -10.08320
      H1     2.37540    1.37435  -10.29133
       H     4.29505   -2.16541   -6.29663
       O     4.68281   -1.47473   -5.69527
      H1     4.01015   -1.11586   -5.03380
       H     2.26931   -0.51260   -8.48480
       O     2.06980   -1.36127   -8.12220
      H1     1.39961   -1.66689   -8.73939

