36
frame 10 | Written by MDAnalysis XYZWriter (release 2.4.3)
       H   -12.05521    9.56841    3.06019
       O   -12.97775    9.72477    2.70839
      H1   -12.92437   10.48383    2.08497
       H   -13.81098    9.20005   -0.16861
       O   -13.12403    8.67170   -0.59302
      H1   -12.85390    7.94156   -0.03459
       H    -8.71842   13.03133   -0.46504
       O    -8.11480   12.35967   -0.20436
      H1    -7.27481   12.87360   -0.13982
       H    -9.02332   12.68397    2.67923
       O    -8.66173   11.84219    2.43004
      H1    -8.13669   11.99331    1.63793
       H   -11.25998   11.18209   -1.93041
       O   -11.62148   11.68593   -2.64868
      H1   -12.24253   12.18725   -2.11409
       H    -9.36043    9.94264    2.95799
       O    -9.92220    9.33790    3.43052
      H1    -9.41671    8.54680    3.51778
       H    -7.76173    9.32973    0.25465
       O    -8.66877    9.04700   -0.05656
      H1    -8.58743    8.44181   -0.79750
       H   -11.54200    9.53102   -3.70899
       O   -11.05400    8.87376   -4.24411
      H1   -11.28222    7.97399   -4.04236
       H   -11.93120   12.01842    1.16076
       O   -12.73500   12.53874    1.37925
      H1   -13.38717   12.16424    0.76921
       H   -10.07850   10.29095   -0.17992
       O   -11.01068   10.52583   -0.04942
      H1   -11.49976    9.63971   -0.11784
       H   -12.56407    6.77261    1.61551
       O   -11.84701    6.75409    0.93761
      H1   -11.07901    7.19102    1.35479
       H   -11.44568   13.91491    1.35287
       O   -11.15780   14.86597    1.57504
      H1   -10.29120   14.92722    1.11712

