36
frame 10 | Written by MDAnalysis XYZWriter (release 2.4.3)
       H    14.80527   12.12027    4.66975
       O    15.69725   11.88624    4.39177
      H1    15.60903   11.83580    3.43166
       H    13.52142    8.21891    2.05630
       O    13.39694    7.30395    1.97022
      H1    13.30629    7.14009    1.01322
       H    16.40936   13.62571    3.47177
       O    16.54785   14.09612    2.62667
      H1    16.28407   13.51181    1.88612
       H    16.58015    8.35768    4.71469
       O    15.77591    8.50011    4.20200
      H1    15.28793    7.72687    4.42181
       H    13.25654    7.22955    4.11797
       O    13.38248    6.61321    4.84628
      H1    13.06479    7.06401    5.62996
       H    14.36024    9.10193    6.73444
       O    15.03881    9.80235    6.73395
      H1    15.52806    9.67934    5.92794
       H    10.91539    8.33948    3.16657
       O    10.84981    7.50196    2.73685
      H1    11.75037    7.24359    2.51884
       H    16.07011    8.03012   -0.04738
       O    15.20545    8.11587   -0.56178
      H1    14.82135    7.20584   -0.50378
       H    16.86115   10.38041   -1.51028
       O    16.01805   10.75157   -1.18727
      H1    15.51328    9.93687   -1.16912
       H    14.52219   13.03743    0.27530
       O    15.28071   12.61358    0.67995
      H1    15.65123   11.99920    0.01651
       H    14.63626   10.79182    1.77946
       O    14.22445   10.12947    2.35671
      H1    14.99640    9.71488    2.71256
       H    12.42078   12.68371    4.10607
       O    11.61569   12.49045    3.57302
      H1    11.28216   11.64627    3.81343

