36
frame 10 | Written by MDAnalysis XYZWriter (release 2.4.3)
       H     1.37385  -16.24478  -10.55689
       O     1.01562  -17.18972  -10.52664
      H1     0.71347  -17.25487  -11.41741
       H     0.98854  -18.75897  -15.77064
       O     1.87158  -18.63694  -15.43567
      H1     2.14203  -19.53813  -15.19270
       H     4.35855  -16.31374  -16.95768
       O     3.56605  -15.89576  -16.68093
      H1     2.86148  -16.27641  -17.26811
       H     2.87824  -19.29816  -16.95537
       O     3.35158  -19.84077  -17.60450
      H1     4.17912  -20.17061  -17.13309
       H     0.11313  -14.10475  -15.00671
       O     0.43001  -14.92715  -15.37490
      H1     0.79138  -15.33186  -14.61771
       H     1.01803  -16.12782  -16.74832
       O     1.21643  -16.46767  -17.61725
      H1     0.71085  -17.25211  -17.67067
       H     1.72750  -17.34147  -14.20770
       O     1.41002  -16.70215  -13.55513
      H1     2.19922  -16.17283  -13.31819
       H     3.52590  -19.84074  -11.99993
       O     4.02509  -19.04217  -12.17124
      H1     3.42783  -18.47477  -12.64545
       H    -0.65971  -16.46353  -13.02479
       O    -1.50150  -16.28335  -12.65716
      H1    -1.36718  -15.43947  -12.22660
       H     3.67453  -15.55633  -14.70107
       O     3.75759  -15.52022  -13.70581
      H1     3.80488  -14.62101  -13.34969
       H    -0.87315  -19.35463  -16.09525
       O    -0.65627  -18.59460  -16.69706
      H1    -0.91649  -18.95455  -17.56192
       H     6.77929  -16.92521  -13.83639
       O     6.03111  -17.17558  -14.37035
      H1     5.45098  -16.53137  -13.99626

