36
frame 10 | Written by MDAnalysis XYZWriter (release 2.4.3)
       H     2.87633   15.92508  -11.70056
       O     2.20539   15.40901  -11.17892
      H1     1.50344   16.07523  -10.98469
       H     5.42597   16.23432  -11.13703
       O     4.67601   16.55888  -11.70778
      H1     5.03665   17.19374  -12.31197
       H     0.93129   15.55012  -13.65008
       O     0.84292   15.53595  -14.62660
      H1     0.89633   14.61185  -14.86809
       H     2.42797   13.85564  -12.09963
       O     2.40153   12.91660  -12.28477
      H1     2.19421   12.74307  -13.23292
       H     0.67448   14.35217   -6.05636
       O     0.24822   14.84033   -6.77066
      H1     0.40414   14.40015   -7.58017
       H     1.63229   17.91203   -9.91313
       O     1.13922   17.84686  -10.74462
      H1     0.29808   18.22523  -10.57506
       H     2.64904   18.07639  -13.76964
       O     1.66967   18.27637  -13.48944
      H1     1.73078   17.99125  -12.52613
       H    -1.71542   18.07557  -11.74481
       O    -1.48682   18.74812  -11.08479
      H1    -1.86485   19.55738  -11.44972
       H     0.65055   13.23402   -9.73701
       O     1.30117   13.56556   -9.08890
      H1     1.98156   13.87339   -9.76508
       H     2.00516   17.84357   -7.50763
       O     2.65749   17.86466   -8.22322
      H1     3.12443   18.60797   -7.94335
       H    -2.21260   15.29241  -12.49973
       O    -2.57961   15.84753  -11.76794
      H1    -2.00013   15.68089  -11.02478
       H    -0.79560   14.92261   -9.11648
       O    -0.85844   15.67126   -9.71143
      H1    -0.92809   16.42738   -9.13138

