36
frame 9 | Written by MDAnalysis XYZWriter (release 2.4.3)
       H    12.40085    9.55473  -13.54718
       O    12.65683   10.27905  -14.14831
      H1    12.85531   10.95529  -13.55279
       H    14.51196    7.65354   -8.50260
       O    14.39165    8.11027   -9.35740
      H1    14.09126    9.04091   -9.20108
       H    12.06605    3.41742  -12.75546
       O    12.58030    3.82824  -12.02197
      H1    13.42477    4.09433  -12.39344
       H    11.53463    6.20148  -15.13940
       O    11.02707    5.93670  -15.92674
      H1    10.60928    5.14755  -15.79083
       H    13.41184    7.43353  -12.18941
       O    12.62298    7.84502  -12.66164
      H1    11.88424    7.58184  -12.05246
       H    14.66791    7.91472  -15.72364
       O    14.91402    8.69479  -15.21220
      H1    14.15520    9.25721  -15.09613
       H    10.60177   10.08209   -9.75861
       O    11.24232   10.18266  -10.49911
      H1    11.18761    9.25105  -10.88865
       H    15.89102    8.12999  -12.21910
       O    15.54264    7.43309  -12.80630
      H1    15.06352    7.83884  -13.58243
       H    10.79247   10.47035  -14.26150
       O     9.98710   11.02358  -14.13907
      H1     9.55307   10.41164  -13.42310
       H     9.72966    7.14111  -11.23417
       O    10.57049    7.46952  -10.86441
      H1    10.88764    6.86974  -10.13884
       H    13.12876    6.82207   -9.07431
       O    12.40882    6.20621   -9.18562
      H1    12.72250    5.68246   -9.93814
       H    15.58914    5.47279  -13.05168
       O    15.11643    4.62257  -12.97125
      H1    15.73511    3.93697  -13.29272

