36
frame 0 | Written by MDAnalysis XYZWriter (release 2.4.3)
       H    14.36351    1.84676   -9.77855
       O    14.09597    1.65666   -8.85351
      H1    13.99052    0.70407   -8.98749
       H    12.62557   -0.07910  -13.75545
       O    12.02511    0.36525  -14.35828
      H1    12.59106    0.45924  -15.14985
       H    14.23745   -0.59376  -10.78689
       O    13.80190   -0.97113   -9.97859
      H1    12.81664   -1.22619  -10.11840
       H    17.02652    3.46945  -11.39905
       O    16.20857    3.75527  -10.89454
      H1    16.06544    4.70153  -11.07663
       H    14.81376    2.74567  -11.75617
       O    14.07547    2.08715  -11.70660
      H1    13.28080    2.57321  -11.98977
       H    14.61546    3.47778  -14.01319
       O    15.46826    3.17979  -14.36119
      H1    15.28276    2.53721  -15.04734
       H     9.22799    1.74229  -11.55484
       O     9.78489    0.98259  -11.78102
      H1    10.59146    1.31220  -12.16179
       H    16.18113    4.25828   -7.91562
       O    16.64794    4.84621   -8.47756
      H1    16.55971    4.40834   -9.32941
       H    14.89447   -0.61382  -13.41683
       O    14.20970   -0.35278  -12.77267
      H1    14.40033    0.58002  -12.49489
       H    11.62075    2.14258  -13.42894
       O    11.80225    2.82071  -12.76303
      H1    11.15202    3.49653  -12.97111
       H    12.18586    4.25179   -8.76015
       O    12.67442    3.91027   -8.01227
      H1    13.17973    3.17215   -8.41375
       H    17.47846    3.16075  -13.36452
       O    18.26066    3.09086  -12.73727
      H1    18.98711    3.36080  -13.27362

