36
frame 1 | Written by MDAnalysis XYZWriter (release 2.4.3)
       H     8.73121   17.56215   11.93395
       O     8.12420   17.40256   11.14814
      H1     7.67911   16.59834   11.40885
       H    13.65401   18.35606   11.81067
       O    14.35705   17.74920   11.60284
      H1    13.95382   17.05198   11.02360
       H    12.37667   19.76772   14.76074
       O    12.63913   18.84716   14.71347
      H1    13.50429   18.70795   15.15087
       H    14.41886   20.05537   19.66662
       O    13.80466   19.32262   19.40165
      H1    13.92309   19.27021   18.41299
       H    10.68360   15.33188   15.50792
       O    11.14057   14.67734   14.94518
      H1    11.32170   15.32068   14.22000
       H    14.37785   16.88213   16.07965
       O    14.77175   17.74113   15.93002
      H1    15.59066   17.53899   15.42460
       H    16.78353   20.45185   11.77758
       O    16.94902   19.51766   11.47443
      H1    16.17356   18.97421   11.81239
       H    18.03553   17.99559   14.47898
       O    17.38312   18.34128   15.09441
      H1    17.81884   18.17802   15.90961
       H    14.56462   16.04771   12.79264
       O    14.50532   15.14779   13.11584
      H1    14.85149   14.50174   12.43652
       H    14.22300   14.86542   15.01124
       O    13.63843   15.12391   15.70198
      H1    12.74137   14.83373   15.40536
       H    11.39868   17.85996   15.74030
       O    10.55810   17.33725   15.89224
      H1     9.91767   17.86353   16.33572
       H    10.19411   19.01549   13.14514
       O     9.66103   18.21456   13.21806
      H1     9.95791   17.89807   14.09836

