36
frame 1 | Written by MDAnalysis XYZWriter (release 2.4.3)
       H     8.12491  -17.55347  -10.11194
       O     8.52678  -16.76863  -10.46246
      H1     8.07770  -16.58094  -11.31420
       H     7.88922  -18.04626   -5.00804
       O     7.40671  -17.26034   -5.35771
      H1     7.96764  -16.56873   -5.65731
       H     7.26526  -13.79276   -9.34377
       O     7.10793  -14.65955   -8.93320
      H1     7.71963  -15.31999   -9.28775
       H    13.24782  -19.32885   -8.13065
       O    13.65778  -19.15445   -8.98958
      H1    13.86589  -18.16924   -9.15400
       H    10.36121  -19.65211   -7.30421
       O    11.26622  -19.32609   -7.20967
      H1    11.25572  -18.63623   -7.91769
       H    11.28842  -18.65995   -5.31845
       O    11.43110  -17.98662   -4.60929
      H1    11.80168  -17.16989   -4.99873
       H    12.15157  -19.62790  -10.44102
       O    11.29556  -19.68400  -10.89426
      H1    11.52030  -19.36317  -11.77838
       H    11.64277  -15.14727   -6.03082
       O    12.09089  -15.95955   -6.24705
      H1    11.70047  -16.20563   -7.10864
       H    12.20948  -16.31810   -9.61875
       O    11.40193  -16.05425   -9.14205
      H1    10.71775  -16.46642   -9.67176
       H     7.25122  -19.39912   -9.64316
       O     7.75257  -18.88273   -9.03809
      H1     7.12775  -18.41542   -8.51062
       H    10.48252  -19.29780   -2.16840
       O     9.94339  -18.48832   -2.20765
      H1    10.31338  -18.07922   -2.98371
       H     4.42631  -17.60446   -6.55573
       O     5.11047  -18.30836   -6.56231
      H1     5.82636  -17.79436   -6.17016

