36
frame 10 | Written by MDAnalysis XYZWriter (release 2.4.3)
       H    15.35693    7.67194   -6.80881
       O    15.15532    8.51163   -7.18281
      H1    14.55650    8.88301   -6.51327
       H    16.15372   11.40381   -3.82191
       O    15.60675   11.96549   -4.43181
      H1    14.77348   12.07296   -4.00773
       H    14.71238    8.56912   -9.04923
       O    14.29733    8.43795   -9.91583
      H1    13.76146    9.25644  -10.02654
       H    12.68415    9.45438   -3.62152
       O    13.04357    9.33725   -2.72809
      H1    12.77606    8.45372   -2.51116
       H    17.37548    5.97297   -6.13401
       O    17.00408    5.80556   -5.26712
      H1    17.54625    5.09014   -4.90407
       H    11.57146   10.43135   -9.75002
       O    12.50499   10.62775   -9.68766
      H1    12.65184   11.13776   -8.92143
       H    17.71177   10.27422   -6.49399
       O    17.44514   11.12335   -6.97117
      H1    16.60416   11.30818   -6.61659
       H    13.32554   12.86953   -7.45461
       O    12.86106   12.04792   -7.22526
      H1    11.97102   12.43268   -6.98841
       H    12.54615    5.22653   -3.64913
       O    12.65737    5.50089   -4.57234
      H1    13.28715    6.24141   -4.43938
       H    13.31274   10.93406   -5.84097
       O    13.26385   10.06548   -5.40237
      H1    12.34368    9.66148   -5.57231
       H    15.22544    4.79729   -8.08437
       O    15.23838    5.53327   -8.68660
      H1    14.42611    5.44014   -9.18502
       H    15.39569    6.65672   -4.36506
       O    14.66982    7.27502   -4.42360
      H1    14.92801    8.07438   -3.90686

