36
frame 0 | Written by MDAnalysis XYZWriter (release 2.4.3)
       H    18.11645   17.24804   -7.80619
       O    17.19490   16.94499   -7.77808
      H1    17.17563   16.18638   -7.22889
       H    13.29402   19.06971   -6.71097
       O    13.77119   18.66585   -5.98863
      H1    13.05800   18.17798   -5.53270
       H    14.94584   19.19237   -3.09321
       O    14.13297   19.65646   -3.32682
      H1    13.82409   19.37838   -4.20151
       H    11.19417   16.01915   -7.41648
       O    12.14830   16.05493   -7.41414
      H1    12.34828   15.17180   -7.05895
       H    12.46797   18.50199   -0.86887
       O    12.30008   18.56744   -1.78923
      H1    13.10940   18.96895   -2.21668
       H    15.61377   19.41286   -9.10765
       O    16.55678   19.37730   -8.75746
      H1    16.59908   18.38114   -8.55347
       H     8.38616   19.49872   -8.34448
       O     9.27633   19.05506   -8.50927
      H1     9.41675   19.06178   -9.46587
       H    14.10925   14.90148   -9.09685
       O    15.02116   15.09163   -8.87422
      H1    15.00287   15.91245   -8.44470
       H     9.17919   16.69067   -5.81922
       O     9.19583   17.56127   -5.40659
      H1     9.45499   18.15305   -6.08012
       H    16.10107   16.68979   -4.95340
       O    15.73175   16.75073   -4.11358
      H1    15.15754   15.94261   -4.13011
       H    12.07580   17.55857   -3.48175
       O    11.79075   17.41828   -4.38135
      H1    10.81413   17.54821   -4.42159
       H    16.45255   19.75947   -7.04702
       O    16.29638   19.84498   -6.05566
      H1    15.65804   19.19554   -5.96504

