36
frame 9 | Written by MDAnalysis XYZWriter (release 2.4.3)
       H    13.25626   20.37157   11.81457
       O    13.27923   19.82094   12.58444
      H1    13.07946   18.92103   12.19220
       H    14.30241   17.67867    8.08104
       O    14.22842   18.26609    8.86932
      H1    15.08786   18.66565    9.08490
       H     9.74881   17.37019   11.95909
       O    10.30229   17.04413   11.26853
      H1    11.24491   17.19313   11.57148
       H    10.10899   18.36408    9.74465
       O    10.01699   18.92448    8.97558
      H1     9.09566   19.02978    8.85497
       H    12.79901   17.42431    6.15521
       O    13.66530   17.25547    5.78896
      H1    13.64127   17.71219    4.95575
       H    16.35373   19.96082   12.92143
       O    16.15629   19.06565   12.61869
      H1    15.20994   19.09358   12.45916
       H    16.19653   19.94283    9.44216
       O    16.58932   19.09006    9.80323
      H1    16.36271   19.02189   10.76974
       H    15.84354   15.51892   12.16969
       O    14.87688   15.37643   12.06488
      H1    14.75353   14.45503   11.83936
       H    10.88192   17.89932    7.81431
       O    11.24799   17.32830    7.08171
      H1    10.47757   16.97807    6.62522
       H    10.58167   14.87642   10.64269
       O    11.06512   14.10658   10.95906
      H1    10.44312   13.60069   11.46806
       H    13.59183   16.81654   11.71351
       O    13.01831   17.38486   11.20580
      H1    13.45641   17.40714   10.38093
       H    12.59882   13.21853   11.61863
       O    13.46420   12.84086   11.88865
      H1    13.41564   12.59545   12.82987

