39
frame 2 | Written by MDAnalysis XYZWriter (release 2.4.3)
       H   -11.03463   17.84134   -0.91247
       O   -11.62818   17.53886   -0.20533
      H1   -11.14476   16.97829    0.38171
       H   -13.44582   16.90263   -0.41374
       O   -14.18623   16.28803   -0.25140
      H1   -14.75782   16.42908   -1.02780
       H   -18.95502   16.65526   -4.51072
       O   -18.70843   17.31842   -5.21158
      H1   -19.36761   17.96901   -4.96984
       H   -13.77543   16.74657   -4.73656
       O   -13.59328   17.58034   -4.27362
      H1   -13.89899   17.40248   -3.35942
       H   -15.39708   18.97111   -1.33951
       O   -15.64309   18.26124   -1.91117
      H1   -15.91252   18.68990   -2.76345
       H   -15.53372   15.25015    0.59475
       O   -16.35834   15.09616    1.07204
      H1   -17.01235   15.16831    0.40596
       H   -18.62149   17.81465    0.10849
       O   -18.34917   17.72545   -0.84941
      H1   -17.38547   17.69048   -0.79947
       H   -16.18266   15.16433   -4.00596
       O   -16.34958   14.93415   -3.13232
      H1   -17.01749   14.15833   -3.19422
       H   -15.28368   16.25961   -6.22170
       O   -15.26358   15.60714   -5.53293
      H1   -14.71895   14.87612   -5.90191
       H   -16.80641   18.11879   -4.92881
       O   -16.28251   18.80727   -4.52800
      H1   -15.31495   18.65050   -4.64392
       H   -12.11994   13.54235   -0.41363
       O   -13.01518   13.81979   -0.67052
      H1   -13.17267   14.73359   -0.40278
       H   -18.24344   19.38698   -3.33764
       O   -18.76772   19.74545   -2.63155
      H1   -18.71025   19.08091   -1.93118
       H   -18.76293   15.99492   -0.90466
       O   -19.15064   15.14967   -0.64288
      H1   -19.62091   15.39337    0.13611

