39
frame 1 | Written by MDAnalysis XYZWriter (release 2.4.3)
       H    -2.21104   -1.56288   13.12714
       O    -2.58302   -1.20092   12.29803
      H1    -2.57610   -0.22666   12.38191
       H    -1.19346   -1.24946   18.40569
       O    -0.45009   -1.61385   17.87649
      H1    -0.85037   -2.21883   17.22654
       H     0.10460   -0.18731   14.38068
       O    -0.23949    0.36020   13.65804
      H1    -0.62965    1.18909   14.07529
       H    -0.53762    1.82346   16.45454
       O    -0.65778    2.74676   16.20059
      H1    -1.06876    3.14705   16.99659
       H    -0.46196   -3.19872   13.96572
       O    -1.16625   -2.60227   14.26304
      H1    -1.71961   -3.09175   14.80793
       H     3.33255   -0.88726   15.16778
       O     3.35647   -0.74349   16.11698
      H1     4.16543   -0.30588   16.30967
       H     1.68739    0.08107   16.37456
       O     0.72359    0.18015   16.33123
      H1     0.38983   -0.39268   17.02441
       H    -0.31539   -0.94737   11.95542
       O     0.37657   -1.18296   11.33815
      H1     0.11794   -1.56529   10.53014
       H     1.18188    2.66219   16.39962
       O     2.16386    2.80395   16.18229
      H1     2.75632    2.85267   16.97912
       H     1.01851    0.89448   12.38799
       O     1.63375    1.53455   12.09477
      H1     1.67004    1.42880   11.12781
       H     3.91663    0.46803   13.77554
       O     3.37448   -0.21787   13.37193
      H1     2.75922    0.29284   12.79253
       H    -0.57678    3.62830   11.92864
       O     0.18984    3.72308   12.52675
      H1     0.75711    2.91242   12.37041
       H     0.87935   -2.81057   15.36024
       O     1.68642   -3.04364   15.86660
      H1     2.24654   -2.27611   15.90039

