39
frame 1 | Written by MDAnalysis XYZWriter (release 2.4.3)
       H     8.30072   20.15847   -3.12219
       O     8.06540   19.62394   -3.89078
      H1     7.31682   19.11987   -3.60746
       H     9.50885   15.77764    2.05539
       O     8.74397   16.38370    1.83546
      H1     7.98407   16.06778    2.35181
       H    12.39141   18.10119    1.30088
       O    13.05586   18.43766    1.88281
      H1    12.50766   18.89033    2.53652
       H     6.15294   16.97900   -2.58276
       O     6.92682   17.60546   -2.41044
      H1     7.57982   17.52838   -3.07524
       H    11.81938   18.43946   -1.51313
       O    11.66715   18.49800   -2.47736
      H1    12.57232   18.58749   -2.80775
       H     7.91810   16.15383   -1.33202
       O     8.45457   15.71014   -0.68878
      H1     8.19562   16.17290    0.13028
       H     5.51971   18.51427   -1.32972
       O     5.00017   18.88215   -0.62228
      H1     4.16951   18.83274   -1.11142
       H     8.98171   19.41707    3.42565
       O     8.31796   19.64054    4.08989
      H1     8.35100   18.89781    4.76057
       H    11.93104   16.11151   -1.03888
       O    12.08738   16.64239   -0.26114
      H1    12.21135   15.97747    0.40110
       H    11.78934   20.17347    4.67310
       O    11.65311   19.51268    3.98804
      H1    11.13385   18.82023    4.41027
       H     5.90160   19.74796    1.73434
       O     5.53412   19.40529    2.55950
      H1     6.28676   19.04533    3.01905
       H     9.90086   18.34697    0.63947
       O    10.40663   19.19837    0.53966
      H1     9.64543   19.83841    0.54173
       H    10.61329   17.42853   -3.56005
       O    10.42780   16.66732   -4.07213
      H1     9.44518   16.72076   -4.29259

