39
frame 1 | Written by MDAnalysis XYZWriter (release 2.4.3)
       H    15.65364    5.20430   18.00720
       O    15.40110    4.81617   17.19349
      H1    14.86725    5.44517   16.76629
       H    11.51689    3.89315   18.39401
       O    10.78351    4.47141   18.69121
      H1     9.96419    4.05899   18.50635
       H    10.99888    6.15654   17.76902
       O    10.71090    6.88778   17.20280
      H1    11.43082    7.54804   17.21785
       H    14.03985    3.71252   18.17696
       O    13.42221    2.98129   18.19108
      H1    13.56339    2.58451   17.33714
       H    15.91557    0.78907   17.37225
       O    16.48517    0.76931   16.58150
      H1    16.56824   -0.13838   16.25624
       H    16.17366    2.61420   12.92134
       O    15.95438    3.24925   13.56698
      H1    15.55065    2.68066   14.25181
       H    14.97284    8.27439   18.95126
       O    14.65102    7.40853   19.07036
      H1    15.48217    6.95330   19.30724
       H    14.11043    1.49065   18.87339
       O    14.83591    0.84540   18.99512
      H1    14.60926    0.02137   19.34597
       H    17.25994    4.87265   20.15343
       O    16.97773    5.30912   19.32914
      H1    17.57985    6.02479   18.96222
       H    10.54561    1.41923   18.65112
       O    10.94468    1.40902   17.78090
      H1    11.50764    0.63543   17.80495
       H    15.10262    1.58499   15.77160
       O    14.26566    2.03702   15.58173
      H1    13.68193    1.36859   15.23773
       H    17.40497    3.70559   14.79530
       O    17.68285    3.55640   15.69726
      H1    16.82374    3.70466   16.14973
       H    14.84223    7.10018   15.17744
       O    14.06990    6.81944   15.62613
      H1    13.72386    7.42629   16.25155

