39
frame 0 | Written by MDAnalysis XYZWriter (release 2.4.3)
       H   -16.72676   12.44075   17.73375
       O   -16.57348   11.49983   17.57084
      H1   -16.17452   11.15121   18.39067
       H   -17.31041    5.75332   19.27739
       O   -17.87124    6.25192   19.84765
      H1   -17.62776    7.21563   19.72425
       H   -11.37075    7.36927   18.62871
       O   -10.78641    7.90552   19.17563
      H1   -10.25976    7.32225   19.73503
       H   -14.63057   11.53299   16.64535
       O   -13.76220   11.31063   16.25252
      H1   -13.87227   11.24914   15.27044
       H   -15.93477    9.04206   13.41818
       O   -15.90654    9.51204   14.27656
      H1   -16.52732   10.23888   14.29391
       H   -13.70755    9.58896   16.25365
       O   -13.90358    8.70057   15.99694
      H1   -14.71243    8.81711   15.50946
       H   -17.37439    8.47011   14.99486
       O   -18.19485    8.08794   15.37885
      H1   -18.37020    8.83729   16.03765
       H   -12.95148    5.77143   16.95808
       O   -12.15195    6.21966   17.29731
      H1   -11.35171    5.71190   17.00454
       H   -15.26793    4.84289   17.76464
       O   -15.42617    5.31725   18.51204
      H1   -14.79441    4.96566   19.13401
       H   -18.17033   10.77102   17.18931
       O   -19.12776   10.55590   16.97835
      H1   -19.47586   11.26841   17.55211
       H   -11.28756    7.97334   15.69588
       O   -10.85795    8.21343   14.87867
      H1   -10.37038    9.08845   15.04257
       H   -15.02673    8.79122   17.85093
       O   -15.62690    8.17194   18.31735
      H1   -15.16455    7.34361   18.39458
       H   -14.15014    6.85961   15.51560
       O   -14.13827    5.89672   15.49205
      H1   -15.01208    5.65234   15.80839

