39
frame 0 | Written by MDAnalysis XYZWriter (release 2.4.3)
       H   -18.34826  -17.75751   -4.06500
       O   -19.05969  -17.24859   -4.59340
      H1   -19.20863  -16.49719   -3.97888
       H   -16.40323  -15.14602   -4.77302
       O   -16.54279  -15.95881   -5.37503
      H1   -17.42029  -16.29010   -5.20106
       H   -15.49663  -15.11817   -0.24114
       O   -14.89189  -15.63527    0.26689
      H1   -15.41875  -16.30905    0.81982
       H   -16.31185  -17.54642    2.82462
       O   -15.73768  -17.45001    2.01300
      H1   -15.77022  -18.33472    1.53168
       H   -16.67853  -18.23635   -8.04713
       O   -17.51201  -17.85238   -7.78979
      H1   -17.41916  -16.93532   -8.02985
       H   -19.93447  -15.89545   -2.04063
       O   -19.29390  -15.38867   -2.55765
      H1   -19.77754  -14.53076   -2.70263
       H   -18.01962  -14.82123   -1.13108
       O   -17.17144  -14.41943   -0.83187
      H1   -17.50008  -13.73029   -0.21858
       H   -14.62309  -18.92965   -7.86835
       O   -15.36758  -19.42999   -7.73593
      H1   -15.65042  -19.29818   -6.77817
       H   -16.88095  -19.61488   -2.89021
       O   -17.60965  -19.07442   -2.60225
      H1   -18.08463  -19.61368   -1.99979
       H   -18.53901  -16.49885    1.25591
       O   -19.45837  -16.33497    0.94636
      H1   -19.63225  -17.01925    0.27758
       H   -15.26085  -18.50583   -4.46949
       O   -14.68408  -17.90202   -4.94449
      H1   -15.33664  -17.16535   -5.27789
       H   -15.10470  -13.96489   -3.25535
       O   -15.99833  -13.92989   -3.55156
      H1   -16.47527  -14.16788   -2.75650
       H   -12.80932  -18.27564   -0.07679
       O   -13.43205  -18.22589   -0.79879
      H1   -13.96240  -17.42827   -0.72505

