39
frame 2 | Written by MDAnalysis XYZWriter (release 2.4.3)
       H   -18.94766   -3.22657   -0.33890
       O   -18.30177   -3.39153    0.41832
      H1   -18.26523   -2.51725    0.79260
       H   -13.92100   -0.79496    3.00346
       O   -14.21753   -1.44395    2.36936
      H1   -14.38637   -2.28517    2.79193
       H   -16.18909   -1.38973   -0.00147
       O   -16.42632   -0.90328    0.81959
      H1   -15.73952   -1.21309    1.46723
       H   -14.91123   -4.38295    3.16957
       O   -15.26040   -3.91639    2.39167
      H1   -14.78481   -4.07789    1.56840
       H   -14.24425   -5.64173    4.68966
       O   -14.82465   -4.93422    4.89082
      H1   -14.29216   -4.29007    5.42952
       H   -17.17620   -1.18946    7.99363
       O   -16.49091   -1.74522    8.36433
      H1   -15.66324   -1.24022    8.33990
       H   -19.57904   -2.15420    7.71729
       O   -19.17789   -1.26418    7.58972
      H1   -18.78259   -1.32930    6.67140
       H   -17.17638   -3.37777    4.61087
       O   -17.60383   -3.09884    3.77674
      H1   -16.97931   -3.37587    3.06323
       H   -17.37973    0.29254    5.30487
       O   -17.36779   -0.66815    5.43494
      H1   -17.55777   -1.15535    4.62549
       H   -17.83659   -5.50824    2.55981
       O   -17.31751   -6.23982    2.90678
      H1   -17.26254   -6.02866    3.91233
       H   -16.46932   -5.66556    5.62424
       O   -17.41635   -5.92331    5.49188
      H1   -17.39504   -6.68269    6.09338
       H   -18.91879   -5.23404    6.35959
       O   -19.85723   -5.44611    6.58044
      H1   -20.34149   -5.58269    5.72867
       H   -15.63969   -1.11467    5.72714
       O   -14.81639   -1.58063    5.64191
      H1   -14.34534   -1.26298    6.43621

