39
frame 3 | Written by MDAnalysis XYZWriter (release 2.4.3)
       H    -5.04744    2.77207   -2.31479
       O    -4.49627    2.60335   -3.11096
      H1    -5.29594    2.52689   -3.69816
       H    -2.75019    5.03367   -0.11924
       O    -2.39559    4.30038   -0.68066
      H1    -2.24953    3.60581   -0.02360
       H    -4.29121   -0.78441   -5.77694
       O    -4.75446   -0.25240   -5.10741
      H1    -4.09412    0.39577   -4.91838
       H    -5.02893    5.86976   -3.92650
       O    -5.26091    5.42548   -3.06875
      H1    -4.73282    4.65374   -3.09150
       H    -0.42602    5.80131   -2.66602
       O    -0.49608    4.83343   -2.51712
      H1    -1.21765    4.75149   -1.90244
       H    -1.53773   -0.50482   -4.37308
       O    -1.60181    0.46748   -4.61459
      H1    -0.72226    0.83360   -4.42109
       H    -4.58661    5.57577   -6.04949
       O    -3.85253    5.93549   -5.60639
      H1    -3.25725    5.28627   -5.18078
       H     1.20968    3.02349   -3.34965
       O     0.93054    2.30567   -3.98421
      H1     1.68397    1.72383   -4.07187
       H    -5.80530    4.56081   -0.62029
       O    -5.24834    3.72966   -0.58049
      H1    -4.32905    4.04083   -0.53129
       H    -3.08538    3.71777   -7.96785
       O    -3.38532    2.81341   -7.85793
      H1    -3.72301    2.53614   -8.72573
       H    -3.07156    3.40561   -3.95538
       O    -2.47251    4.04556   -4.39756
      H1    -1.74943    4.23920   -3.76473
       H    -2.95013    0.36285   -1.13562
       O    -2.68524    1.27253   -1.22479
      H1    -3.10415    1.76679   -1.91545
       H    -1.12730    0.91539   -6.23088
       O    -1.08852    1.21025   -7.17442
      H1    -1.84528    1.69779   -7.38242

