39
frame 3 | Written by MDAnalysis XYZWriter (release 2.4.3)
       H     2.87385  -20.09318   -2.89722
       O     3.24316  -19.21290   -2.62860
      H1     2.87750  -19.15151   -1.73115
       H    -0.65727  -16.33865    1.17911
       O     0.30341  -16.49043    0.95150
      H1     0.74753  -15.89577    1.54568
       H     2.89547  -14.72757    1.45981
       O     2.63391  -15.20677    2.29597
      H1     3.38473  -15.88484    2.21536
       H     3.42417  -15.04305   -0.78668
       O     2.91363  -14.30175   -0.39804
      H1     3.45368  -13.52638   -0.67781
       H     5.25532  -17.50049    2.98244
       O     4.87372  -17.29695    2.08913
      H1     5.40484  -16.59371    1.84748
       H     6.92370  -15.28927    1.05902
       O     6.08111  -14.97418    1.22585
      H1     5.66490  -14.76097    0.38914
       H    -1.01212  -15.12257   -1.13560
       O    -1.92036  -15.46321   -1.18690
      H1    -1.80138  -16.11698   -1.90016
       H     4.01972  -17.16471   -1.10682
       O     4.37095  -16.47691   -1.62449
      H1     5.08269  -16.77182   -2.11995
       H     0.14310  -12.94491   -1.00724
       O     0.33205  -13.88195   -0.94154
      H1     1.28664  -13.98068   -0.63407
       H     3.62632  -15.99307   -3.26715
       O     3.34780  -15.55373   -4.03303
      H1     2.53413  -15.12599   -3.80712
       H     1.38857  -12.74062    1.60106
       O     0.56803  -13.20399    1.92797
      H1     0.17202  -13.61191    1.20762
       H     2.08999  -17.18030    0.22874
       O     2.87398  -17.72152    0.19039
      H1     3.48796  -17.50929    0.99393
       H     0.34221  -17.96019    3.52787
       O     0.07692  -18.75650    3.05441
      H1    -0.16262  -18.25215    2.28405

