39
frame 2 | Written by MDAnalysis XYZWriter (release 2.4.3)
       H     9.27838  -11.88856   10.90547
       O     9.85508  -12.63860   10.64183
      H1     9.28329  -13.39927   10.57055
       H     9.43274  -14.48361   14.05539
       O    10.06666  -14.89485   14.65358
      H1     9.55097  -15.41309   15.28983
       H     8.02038  -10.73865   12.40353
       O     8.06803  -10.49716   11.46162
      H1     8.42846   -9.61684   11.61955
       H    12.27413  -12.97486   15.38791
       O    11.55184  -12.98800   16.05551
      H1    10.82499  -13.25803   15.52341
       H    13.73121  -11.39512   14.92787
       O    13.28052  -10.55919   14.73344
      H1    12.64735  -10.85998   14.07596
       H    13.73690  -13.33617    9.85377
       O    13.63694  -12.48107    9.46798
      H1    12.76943  -12.43586    9.05529
       H    10.29872  -12.22875   12.66500
       O    10.93008  -11.66969   13.06463
      H1    11.65725  -11.61155   12.35028
       H     9.21354   -8.69848   13.38066
       O     9.00015   -8.16244   12.59480
      H1     9.87257   -7.91674   12.32638
       H    14.43164  -14.03240   14.51624
       O    13.68495  -13.68642   14.09378
      H1    14.11148  -13.10083   13.42449
       H     7.70435  -12.77096   13.62475
       O     8.17820  -13.51297   13.25809
      H1     7.54043  -14.09992   12.76335
       H    13.72270  -10.78483   12.34856
       O    13.39828  -11.60518   11.99987
      H1    13.69604  -11.70658   11.05777
       H    12.86297  -16.61199   12.98744
       O    13.64132  -16.06643   12.72525
      H1    13.45498  -15.19927   13.13706
       H    10.49081  -12.42851    9.07824
       O    11.12067  -12.32636    8.34643
      H1    10.89503  -12.96634    7.64903

