39
frame 2 | Written by MDAnalysis XYZWriter (release 2.4.3)
       H    -8.43214  -14.36783   16.36944
       O    -7.73845  -14.84377   15.86184
      H1    -7.56433  -14.23809   15.15289
       H    -1.91676  -11.83494   18.56612
       O    -2.80821  -11.47038   18.76511
      H1    -2.82711  -10.55715   18.40057
       H    -8.44267   -8.41098   15.40906
       O    -7.66936   -8.13719   14.89184
      H1    -7.10994   -8.90102   15.08196
       H    -2.52559  -12.14889   12.69178
       O    -2.47622  -12.92495   13.28992
      H1    -3.34399  -13.30256   13.25582
       H    -4.07485  -12.55957   15.77665
       O    -3.60854  -11.71299   15.67275
      H1    -3.11148  -11.84615   14.88167
       H    -3.34060   -8.61360   16.99695
       O    -3.26743   -8.83051   17.94845
      H1    -2.40058   -8.58262   18.22445
       H    -3.85092   -8.95195   13.73784
       O    -3.86797   -9.27426   12.86664
      H1    -3.45441   -8.50329   12.40771
       H    -6.42818   -8.79112   18.19093
       O    -7.20224   -9.10874   18.75973
      H1    -7.59323   -9.87504   18.40033
       H    -6.22837  -10.55728   13.13001
       O    -6.42344  -10.64468   12.19589
      H1    -6.59629   -9.74256   11.86412
       H    -5.23915  -10.91594   15.46895
       O    -6.18302  -10.73687   15.23989
      H1    -6.64749  -11.12444   16.00121
       H    -3.45689   -6.61789   15.15886
       O    -3.14905   -7.52507   15.27230
      H1    -2.47414   -7.72899   14.55994
       H    -4.89173  -13.88678   17.41642
       O    -5.15250  -13.78582   16.48588
      H1    -6.04974  -14.08358   16.50043
       H    -8.24783  -12.11528   17.64739
       O    -7.43115  -11.66608   17.63155
      H1    -6.82365  -12.37689   17.85165

