39
frame 2 | Written by MDAnalysis XYZWriter (release 2.4.3)
       H   -16.27696  -12.33720  -16.42537
       O   -16.47343  -13.20536  -16.13078
      H1   -16.95368  -13.11200  -15.29439
       H   -13.95857  -10.09794  -14.24416
       O   -13.62950   -9.80114  -15.07952
      H1   -14.33465  -10.11505  -15.66416
       H   -14.97585   -6.90270  -16.67969
       O   -15.89577   -7.13082  -16.82388
      H1   -16.09664   -7.50025  -17.71690
       H   -13.51029   -9.59143  -17.97366
       O   -13.30277   -8.71644  -17.65039
      H1   -13.39071   -8.78389  -16.68600
       H   -17.32958   -8.77606  -19.53285
       O   -17.58381   -8.50078  -18.62459
      H1   -17.84357   -9.34834  -18.24673
       H   -18.85312   -4.87009  -20.00220
       O   -17.87550   -4.67839  -19.92402
      H1   -17.65550   -4.89938  -18.98476
       H   -15.70838  -11.04865  -17.67153
       O   -15.27169  -10.84213  -16.81140
      H1   -15.97228  -10.27780  -16.35291
       H   -19.54475   -8.10961  -14.99732
       O   -19.54414   -8.39652  -15.91390
      H1   -19.36868   -7.54008  -16.33356
       H   -17.14937   -4.27903  -16.74412
       O   -16.39372   -4.47886  -17.36048
      H1   -16.19670   -5.40935  -17.02883
       H   -13.68223   -7.25823  -18.94946
       O   -13.87290   -6.54987  -19.51529
      H1   -13.16286   -5.88155  -19.40807
       H   -17.71964   -8.83054  -15.30670
       O   -16.86718   -9.23264  -15.14043
      H1   -16.36089   -8.43498  -15.22217
       H   -19.13478  -11.22306  -17.01220
       O   -18.74691  -10.93037  -17.87598
      H1   -18.40945  -11.82112  -18.14548
       H   -19.17247   -5.66837  -17.27443
       O   -19.25788   -6.39746  -17.83269
      H1   -18.42785   -6.87629  -17.93372

