39
frame 3 | Written by MDAnalysis XYZWriter (release 2.4.3)
       H    16.69976    8.30398   -6.13573
       O    16.44401    8.86398   -6.90030
      H1    15.53404    9.16550   -6.75060
       H    17.71774   14.63698   -5.38727
       O    16.76357   14.64098   -5.30466
      H1    16.29973   14.46927   -6.15983
       H    14.89633   10.74740   -4.96715
       O    15.58448   11.43536   -4.82485
      H1    15.36183   11.96763   -4.06193
       H    19.83048   15.72953   -3.89918
       O    19.21824   16.20664   -4.50019
      H1    18.69476   16.82812   -3.93706
       H    18.03794   11.92740   -3.70253
       O    17.79202   11.08407   -3.36963
      H1    16.92641   10.87056   -3.81350
       H    16.07705   11.44077    0.11309
       O    15.87903   10.59613    0.54813
      H1    15.74506   10.81256    1.45621
       H    18.28484   11.45300   -6.72106
       O    18.09625   10.93633   -7.47060
      H1    17.61380   10.14055   -7.13488
       H    16.08986   12.72962   -1.81082
       O    15.33800   12.79420   -2.40933
      H1    15.16076   13.73372   -2.52302
       H    15.02674   12.56910   -6.06758
       O    14.86037   13.30278   -6.66457
      H1    14.99571   12.94893   -7.54612
       H    19.49463    8.11279   -3.31822
       O    18.60410    8.33053   -3.05640
      H1    18.57633    9.30025   -2.92997
       H    14.04137    9.23000   -2.94385
       O    14.80102    8.65427   -2.93455
      H1    14.71373    8.16736   -2.09258
       H    17.77904   11.75303   -1.82584
       O    17.74565   12.37496   -1.07566
      H1    18.23213   12.25018   -0.28905
       H    14.93365   16.27115   -4.28724
       O    15.64984   16.37350   -3.68644
      H1    16.35464   15.77464   -4.03866

