39
frame 2 | Written by MDAnalysis XYZWriter (release 2.4.3)
       H    -1.91676  -11.83494   18.56612
       O    -2.80821  -11.47038   18.76511
      H1    -2.82711  -10.55715   18.40057
       H    -1.67904  -15.52529   17.54762
       O    -2.46321  -15.85759   17.19728
      H1    -2.20224  -16.26935   16.38836
       H     0.09270  -13.41516   18.71965
       O    -0.04200  -12.42403   18.59087
      H1     0.41395  -12.32411   17.74450
       H    -4.07485  -12.55957   15.77665
       O    -3.60854  -11.71299   15.67275
      H1    -3.11148  -11.84615   14.88167
       H    -3.34060   -8.61360   16.99695
       O    -3.26743   -8.83051   17.94845
      H1    -2.40058   -8.58262   18.22445
       H     0.08701  -11.73078   15.46361
       O    -0.34421  -11.37299   14.69902
      H1    -0.97488  -12.01470   14.39833
       H     0.24701  -15.79198   19.29967
       O     0.10913  -15.40374   18.45257
      H1     0.83710  -15.75818   17.92087
       H     3.32825  -10.60572   17.06075
       O     3.72375  -11.27540   16.44792
      H1     3.96888  -12.00492   17.08229
       H     2.67628  -12.88822   18.94777
       O     3.39424  -12.28538   19.04534
      H1     3.19269  -11.59520   19.70288
       H    -0.49597   -7.15557   17.65130
       O    -0.53232   -8.05319   17.94360
      H1     0.23030   -8.57060   17.57140
       H    -5.21174  -14.30926   19.73456
       O    -5.31030  -13.54160   19.13122
      H1    -4.43039  -13.14568   19.15151
       H     1.42466   -8.30751   16.02308
       O     1.78512   -9.00999   16.67916
      H1     2.58221   -8.61842   17.07722
       H     1.58850  -13.39764   15.75777
       O     1.34048  -12.58619   16.24086
      H1     2.10528  -12.04355   16.29628

