39
frame 2 | Written by MDAnalysis XYZWriter (release 2.4.3)
       H    -7.34736    6.22728   -8.12988
       O    -7.88550    6.77892   -7.52909
      H1    -8.79498    6.55649   -7.71327
       H    -5.82173   10.05231   -7.59236
       O    -6.30980    9.57613   -6.91802
      H1    -6.89358    9.01138   -7.41069
       H    -8.07092    8.27058   -8.96948
       O    -8.47362    8.91079   -9.60277
      H1    -9.42990    8.83787   -9.35922
       H    -2.53101    7.41947   -6.84464
       O    -2.74735    8.34104   -6.77568
      H1    -3.48064    8.56512   -7.36749
       H    -3.40662    9.21955   -5.22574
       O    -3.70137    9.90021   -4.65586
      H1    -4.25112    9.36466   -4.04640
       H    -7.87079   11.18983   -4.37532
       O    -8.03039   12.12166   -4.45854
      H1    -8.58770   12.05365   -5.23570
       H    -3.88977    9.68264   -9.31456
       O    -4.23160   10.40566   -8.83472
      H1    -3.52184   11.09435   -8.68404
       H    -4.70325   11.64502   -4.81051
       O    -5.14992   12.48540   -4.44512
      H1    -6.09568   12.46035   -4.64403
       H    -9.57167   10.47506   -7.28767
       O    -9.46868   11.45657   -7.04054
      H1   -10.03174   11.92983   -7.66374
       H    -7.03119   13.20406   -8.59325
       O    -6.97826   13.07874   -7.63228
      H1    -7.58492   12.27206   -7.49007
       H    -2.02770   12.87327   -9.41113
       O    -2.80514   12.67674   -8.89803
      H1    -3.27773   13.49081   -8.80445
       H    -8.27844   12.03685  -11.13476
       O    -7.99039   11.16685  -11.43527
      H1    -8.19146   10.58691  -10.65978
       H    -7.86906    8.73635   -4.42025
       O    -7.25569    9.54396   -4.42114
      H1    -6.78664    9.56212   -5.28245

