39
frame 2 | Written by MDAnalysis XYZWriter (release 2.4.3)
       H     2.13324   19.18852   -7.80192
       O     2.35840   18.70326   -8.56199
      H1     2.98066   18.03732   -8.26917
       H     2.16368   14.34023  -10.72571
       O     2.51421   14.76928   -9.93805
      H1     1.77068   15.02089   -9.40555
       H    -2.38209   18.12056   -5.27115
       O    -1.74317   17.56015   -4.81552
      H1    -0.96910   18.06211   -4.58019
       H     5.89218   15.98301   -8.72056
       O     6.66936   15.97397   -9.28574
      H1     7.29787   15.36378   -8.94135
       H     0.13256   16.46822   -8.08919
       O     0.55751   16.65563   -8.91904
      H1     1.10100   17.45817   -8.81744
       H     2.48932   18.51780  -12.43481
       O     3.13392   18.76703  -11.72504
      H1     2.56737   18.72938  -10.91810
       H     4.54048   17.76632   -7.10955
       O     4.39705   17.16694   -7.86561
      H1     4.19260   16.35493   -7.46666
       H     5.82187   17.46413  -10.59200
       O     6.02717   18.26870  -11.14785
      H1     5.15230   18.42813  -11.63600
       H     5.15475   19.86277   -6.10229
       O     4.51738   19.22050   -5.81907
      H1     3.76741   19.78979   -5.58891
       H     6.08304   18.05258   -5.25383
       O     6.92283   17.82091   -4.94685
      H1     7.55417   18.03188   -5.63598
       H     4.10825   15.01485   -5.46067
       O     3.83527   14.86350   -6.36316
      H1     4.51567   14.25301   -6.70259
       H    -1.19053   16.28534   -5.93468
       O    -0.47268   15.75558   -6.40397
      H1    -0.89484   14.87057   -6.61621
       H    -1.18138   16.48472   -9.81504
       O    -2.09420   16.63852   -9.91251
      H1    -2.24567   17.57177   -9.64003

