39
frame 4 | Written by MDAnalysis XYZWriter (release 2.4.3)
       H   -17.75839    1.45671  -14.82314
       O   -17.82274    1.79432  -13.89568
      H1   -17.20453    2.52956  -14.00016
       H   -16.12925    0.55672  -13.66776
       O   -15.33685    0.17462  -13.27854
      H1   -14.73518    0.10737  -14.03569
       H   -14.18198    1.74186  -15.20497
       O   -14.75351    2.15719  -15.86810
      H1   -15.12982    2.88822  -15.33425
       H   -15.87363   -3.15737  -11.88064
       O   -14.91232   -3.27423  -11.95901
      H1   -14.72363   -4.08465  -11.44227
       H   -17.42887    0.45556  -17.19108
       O   -17.20889    0.73265  -16.31055
      H1   -16.33073    1.10518  -16.37742
       H   -15.53363    1.29697  -11.73294
       O   -15.74084    2.11888  -11.19781
      H1   -16.53751    2.48641  -11.63181
       H   -13.44250   -0.06146  -10.32780
       O   -12.57922   -0.25196   -9.99133
      H1   -11.99006   -0.06467  -10.82261
       H   -13.57266   -2.20761  -12.70218
       O   -12.77010   -1.82560  -13.08212
      H1   -13.06598   -1.40348  -13.91590
       H   -19.65180   -0.89811  -13.27343
       O   -19.31217   -1.18981  -14.11564
      H1   -18.37414   -1.40058  -13.87079
       H   -17.67288   -1.37309  -15.87614
       O   -17.21294   -2.22541  -15.78320
      H1   -17.91092   -2.91393  -15.97851
       H   -15.75423   -3.10162  -15.71784
       O   -14.94153   -3.51402  -15.40877
      H1   -15.18922   -3.55495  -14.49038
       H   -13.24324   -0.35487  -16.28420
       O   -13.10879   -0.21424  -15.34524
      H1   -12.31183    0.32449  -15.30735
       H   -16.25037    4.48505  -15.04272
       O   -16.02195    3.86407  -14.33239
      H1   -15.46014    4.35889  -13.71264

