39
frame 0 | Written by MDAnalysis XYZWriter (release 2.4.3)
       H     4.88315   13.78276   18.58806
       O     4.21141   13.23860   19.00834
      H1     3.87247   13.77924   19.72470
       H     4.98656   11.77060   18.47242
       O     5.77006   11.36696   18.07269
      H1     5.98444   10.56027   18.55588
       H    -1.47210   15.66171   19.57443
       O    -2.23755   16.16782   19.28034
      H1    -3.06658   15.81308   19.67234
       H    -2.75067   12.88495   19.06784
       O    -1.78223   12.92500   19.11103
      H1    -1.64394   12.02089   19.44412
       H     2.55944   13.72940   17.87418
       O     1.84519   14.26211   17.45089
      H1     1.77895   14.99604   18.05198
       H     4.23052   17.93274   17.64747
       O     3.70662   18.23137   16.89144
      H1     3.89919   17.57863   16.22029
       H     0.58409   13.25034   17.13035
       O    -0.10352   12.54179   16.99134
      H1    -0.80339   12.73113   17.63963
       H     0.31633   17.05757   16.67610
       O     0.97075   16.99205   17.39516
      H1     1.81082   17.37011   17.03005
       H    -0.89298   13.46401   15.20706
       O    -1.23191   13.53858   14.33687
      H1    -0.89615   14.40964   14.09181
       H     5.39929   16.43722   19.22604
       O     5.00098   17.30795   19.41680
      H1     5.79203   17.81980   19.67391
       H     1.86336    9.79154   17.23712
       O     0.94300    9.92902   17.32801
      H1     0.75539   10.88652   17.36519
       H    -2.13643   16.91034   16.00765
       O    -1.27433   17.10418   15.64800
      H1    -1.17933   18.02352   15.87066
       H     3.04714   15.43985   14.67092
       O     3.56450   14.90403   15.26768
      H1     3.05040   14.77658   16.06741

