39
frame 0 | Written by MDAnalysis XYZWriter (release 2.4.3)
       H    -9.98113    5.34535   12.97821
       O   -10.62471    5.48232   13.64095
      H1   -10.50028    6.44194   13.79760
       H   -11.76469    8.33872    9.81755
       O   -11.22224    8.74535   10.48871
      H1   -11.70375    8.47562   11.32651
       H   -11.37075    7.36927   18.62871
       O   -10.78641    7.90552   19.17563
      H1   -10.25976    7.32225   19.73503
       H   -12.02624    8.51108   13.51351
       O   -12.54992    8.55008   12.71025
      H1   -12.92139    7.65221   12.54179
       H   -13.51750    5.75139   13.94538
       O   -13.08107    5.73293   13.04106
      H1   -12.11006    5.61495   13.26169
       H   -13.70755    9.58896   16.25365
       O   -13.90358    8.70057   15.99694
      H1   -14.71243    8.81711   15.50946
       H   -12.95148    5.77143   16.95808
       O   -12.15195    6.21966   17.29731
      H1   -11.35171    5.71190   17.00454
       H   -14.46260   10.26997   13.70154
       O   -13.77356   10.83170   13.33765
      H1   -13.07025   10.19522   13.08272
       H    -8.79184    8.70441   16.91359
       O    -8.44548    7.88191   16.52103
      H1    -9.17531    7.28877   16.30788
       H    -9.17310   10.67818   13.84449
       O    -9.29737   10.28388   14.72869
      H1    -8.60092    9.63248   14.88707
       H   -11.28756    7.97334   15.69588
       O   -10.85795    8.21343   14.87867
      H1   -10.37038    9.08845   15.04257
       H   -14.15014    6.85961   15.51560
       O   -14.13827    5.89672   15.49205
      H1   -15.01208    5.65234   15.80839
       H    -8.76112    4.68059   16.44780
       O    -9.59947    5.20127   16.38916
      H1    -9.96762    4.96799   15.50055

