39
frame 3 | Written by MDAnalysis XYZWriter (release 2.4.3)
       H    12.90440    9.18337    2.14407
       O    13.07483    8.21937    2.08346
      H1    13.28888    8.09590    1.13956
       H     6.59567   10.57569    3.44639
       O     7.19802   10.44442    2.63901
      H1     6.71746    9.77347    2.06343
       H     9.42300    7.66285    4.20913
       O     9.16281    6.89186    4.72410
      H1     9.72209    6.12726    4.45016
       H     8.84537    9.55392   -0.07925
       O     9.01149   10.30833   -0.64581
      H1     8.50847   11.04389   -0.35867
       H    11.63930    7.79919    7.15809
       O    11.49387    8.39016    6.35577
      H1    10.51202    8.33670    6.28801
       H     9.67854   10.32899    5.33871
       O     9.35818    9.83628    4.59098
      H1     8.64166   10.37960    4.20864
       H     9.75713   14.53199    5.39127
       O    10.18258   13.68136    5.44418
      H1    11.15257   13.86016    5.47929
       H    12.54385    9.73753    5.57778
       O    13.09124   10.49694    5.32040
      H1    13.97481   10.11881    5.14919
       H    10.53394   11.09742    7.49205
       O     9.75732   11.22183    6.89619
      H1     9.78749   12.14380    6.58292
       H    10.36325    6.63246    1.38523
       O    11.03416    6.45636    2.08036
      H1    11.74349    7.06708    1.94389
       H    12.33147   10.72585    3.65092
       O    11.83845   10.77146    2.81179
      H1    10.95474   10.61212    3.18415
       H    12.84667   13.19331    1.45247
       O    11.99674   13.06808    0.94235
      H1    11.77398   12.14742    1.21843
       H     9.45807   13.29014    3.64221
       O     9.48752   13.36654    2.72175
      H1    10.44472   13.21410    2.52521

