39
frame 0 | Written by MDAnalysis XYZWriter (release 2.4.3)
       H    16.77435   -2.90800   15.91399
       O    16.27104   -2.19564   15.55794
      H1    15.34859   -2.40826   15.77638
       H    12.65832   -9.45144   19.07889
       O    13.29423   -9.24982   19.77018
      H1    13.62699   -8.33531   19.64276
       H    17.46776   -9.00760   19.07524
       O    17.33083   -9.73895   18.47733
      H1    18.04715  -10.37503   18.63305
       H    15.60843   -9.74849   17.53544
       O    14.63204   -9.76869   17.37912
      H1    14.36805   -9.68086   18.32248
       H    12.29253   -5.20453   17.65970
       O    13.04699   -4.60779   17.64415
      H1    13.04212   -4.09707   16.84352
       H    19.63913   -9.13367   16.40927
       O    19.15817   -8.51468   16.95816
      H1    18.48956   -9.14296   17.38413
       H    17.89327   -0.50266   19.55367
       O    18.78029   -0.15643   19.74005
      H1    19.15284    0.30490   19.01193
       H    16.26803   -4.59964   17.78962
       O    15.61282   -4.41257   18.49361
      H1    14.72890   -4.66811   18.15285
       H    17.75223   -5.41983   15.96573
       O    17.63447   -4.55251   16.42026
      H1    18.50854   -4.14220   16.31645
       H    18.71905   -6.48108   14.62827
       O    18.02629   -6.83868   15.20371
      H1    18.41008   -7.33453   15.91573
       H    12.70391   -1.88757   20.16586
       O    13.18210   -1.71235   19.34319
      H1    13.46577   -2.59964   19.08183
       H    16.17876   -4.56524   13.89194
       O    16.16767   -4.72319   12.93379
      H1    16.92054   -4.24882   12.55017
       H    18.57469   -5.71769   20.11114
       O    19.06256   -5.38873   19.32381
      H1    19.07826   -4.40552   19.29691

