39
frame 4 | Written by MDAnalysis XYZWriter (release 2.4.3)
       H    16.70562  -10.78595  -16.14312
       O    17.63022  -10.90614  -16.28969
      H1    18.00734  -10.08534  -15.86415
       H    15.98467   -5.90390  -19.78444
       O    16.93572   -5.92652  -19.40789
      H1    16.85203   -6.03311  -18.46742
       H    17.05092   -5.19105  -14.32392
       O    16.54803   -6.05546  -14.26814
      H1    15.80381   -5.85736  -13.72074
       H    17.89393  -12.51906  -15.52696
       O    17.75669  -13.35870  -15.05302
      H1    18.33195  -13.97477  -15.52817
       H    18.68165   -7.91739  -14.45817
       O    18.90100   -8.51112  -15.20588
      H1    19.03490   -7.82496  -15.87512
       H    19.17310   -7.17179  -11.91249
       O    19.27833   -6.18961  -11.75280
      H1    18.42034   -5.96234  -11.36480
       H    19.11919   -3.72319  -16.11355
       O    19.63024   -3.42694  -16.78196
      H1    19.36542   -2.47071  -16.88010
       H    19.03051   -9.61466  -12.51000
       O    18.60926   -8.81481  -12.27357
      H1    17.68752   -9.07689  -12.13831
       H    14.09746  -10.50702  -16.43880
       O    14.83437  -10.27818  -15.81922
      H1    15.04754   -9.31236  -15.85702
       H    16.32074   -7.41137  -16.07601
       O    15.62329   -7.75835  -16.63840
      H1    14.97085   -7.06866  -16.57051
       H    18.16263  -10.87452  -17.94203
       O    18.53967  -10.56332  -18.76843
      H1    19.22239  -11.22962  -19.04973
       H    16.40025  -11.02418  -12.08207
       O    16.23348  -10.07713  -11.81670
      H1    15.54216   -9.81858  -12.45575
       H    19.82899   -5.81773  -16.73438
       O    19.14413   -6.42201  -17.05692
      H1    19.54786   -7.04555  -17.67840

