39
frame 3 | Written by MDAnalysis XYZWriter (release 2.4.3)
       H   -18.34340  -12.36447  -10.94761
       O   -17.43351  -12.44681  -11.33197
      H1   -16.96893  -11.61014  -11.14768
       H   -13.17538   -9.51658  -10.15929
       O   -13.65518   -9.69861  -10.97318
      H1   -14.61722   -9.69496  -10.76200
       H   -14.24242  -10.30630  -12.65853
       O   -14.59528  -10.87338  -13.37718
      H1   -15.02705  -10.23509  -13.92376
       H   -16.81143   -9.12964  -11.24885
       O   -16.45575   -9.90112  -10.81290
      H1   -16.89823  -10.05751   -9.97828
       H   -13.87412  -12.04040  -12.31854
       O   -13.68836  -12.70470  -11.59112
      H1   -12.77026  -12.60667  -11.39713
       H   -12.64120   -9.83317   -8.09978
       O   -12.71828   -8.95373   -8.57687
      H1   -13.35540   -8.50033   -8.00097
       H   -19.01153   -7.68275   -9.05091
       O   -18.32996   -8.12383   -8.48075
      H1   -18.57632   -7.98953   -7.54447
       H   -16.68633  -10.22625   -6.47082
       O   -16.63665   -9.63950   -5.73698
      H1   -17.49899   -9.16040   -5.81454
       H   -18.30468   -7.32789  -12.16796
       O   -17.39073   -7.42396  -11.94871
      H1   -17.14891   -6.64135  -11.57461
       H   -17.69133  -10.33005  -13.73962
       O   -17.97675  -11.22214  -13.62036
      H1   -17.64147  -11.49091  -12.76698
       H   -15.43317  -12.80482   -8.47029
       O   -15.11526  -12.00454   -7.97632
      H1   -15.95613  -11.55492   -8.05418
       H   -15.07817  -14.41536   -9.67034
       O   -15.91298  -14.08263   -9.40855
      H1   -16.29297  -13.53381  -10.13996
       H   -18.23149  -11.21929   -8.02526
       O   -17.55204  -10.58697   -8.33404
      H1   -17.94328   -9.65851   -8.36336

