39
frame 3 | Written by MDAnalysis XYZWriter (release 2.4.3)
       H   -14.22272  -11.42338   10.19433
       O   -14.07727  -12.05917    9.44812
      H1   -14.53793  -11.68192    8.68563
       H   -16.91545  -10.61109   11.97677
       O   -16.63006  -11.53879   11.96620
      H1   -17.42690  -12.02457   12.09903
       H   -16.67352   -8.36798   11.49908
       O   -17.39021   -8.87683   11.86005
      H1   -18.18992   -8.72785   11.33225
       H   -19.62266  -12.80554   11.52692
       O   -19.98025  -12.90228   10.60914
      H1   -19.23722  -12.95685    9.98257
       H   -12.72146  -10.11575   11.46318
       O   -11.93942  -10.48617   11.83196
      H1   -12.13920  -11.39479   11.86775
       H   -16.81318   -9.00536   13.48741
       O   -16.54754   -8.71004   14.38592
      H1   -15.62502   -8.95220   14.42811
       H   -17.85911  -15.78492   11.22624
       O   -17.25503  -15.71427   12.00359
      H1   -16.74744  -14.93560   11.85785
       H   -13.46044  -12.10939   13.23561
       O   -14.13073  -11.54220   13.60179
      H1   -14.91866  -11.53487   13.05911
       H   -14.73016  -15.49646   12.72626
       O   -14.55285  -14.67717   13.22945
      H1   -15.19765  -14.39246   13.85816
       H   -14.02878   -8.46021   11.30424
       O   -14.28204   -9.32860   10.85198
      H1   -14.51555   -8.94834    9.97724
       H   -17.08645  -13.41505    9.17302
       O   -17.49347  -12.54335    9.29222
      H1   -16.89916  -12.08866    9.94709
       H   -16.27560  -11.32298   16.50275
       O   -16.70843  -10.44549   16.40603
      H1   -16.69918  -10.24433   15.40175
       H   -13.84720   -9.89705   14.05551
       O   -13.79305   -8.91650   14.23433
      H1   -13.56993   -8.36871   13.45699

