39
frame 0 | Written by MDAnalysis XYZWriter (release 2.4.3)
       H   -14.73154   16.03449  -12.89529
       O   -15.09599   16.45970  -12.06019
      H1   -15.59725   15.86252  -11.51360
       H   -10.03627   15.66109  -10.24743
       O   -10.68486   15.56933  -10.96227
      H1   -10.40907   16.02745  -11.77329
       H   -11.12083   16.12764  -14.53797
       O   -11.48164   15.62388  -15.30746
      H1   -10.79388   15.04655  -15.66755
       H   -10.91986   17.77347  -12.90968
       O   -10.71730   16.91253  -13.30930
      H1    -9.76186   16.80360  -13.33639
       H   -13.12332   15.30310  -14.43604
       O   -14.13270   15.30794  -14.34050
      H1   -14.40487   15.16135  -15.24462
       H    -8.39651   18.42740  -16.12655
       O    -8.99865   17.77702  -15.71799
      H1    -9.71327   18.23486  -15.29862
       H   -12.37270   16.19104  -10.63304
       O   -12.99465   16.77463  -10.17106
      H1   -13.85450   16.48950  -10.55004
       H   -12.74129   16.74264  -17.82013
       O   -11.95900   17.21232  -17.48873
      H1   -11.95398   16.80858  -16.59319
       H   -15.06608   17.81966   -7.04283
       O   -14.37867   17.08193   -7.16775
      H1   -14.14417   17.15601   -8.10678
       H   -13.70665   18.49154  -15.84088
       O   -13.50954   18.22649  -14.93791
      H1   -13.53014   17.26301  -14.99552
       H   -12.31857   18.13819  -11.19294
       O   -12.33705   18.79245  -11.91710
      H1   -13.20054   19.15571  -12.02640
       H   -15.14987   18.64125  -12.45990
       O   -15.00534   19.48367  -12.02789
      H1   -15.49129   19.48305  -11.22084
       H   -10.92566   19.90080  -16.59314
       O   -11.29452   19.85272  -17.50211
      H1   -11.64171   18.94493  -17.62003

