39
frame 4 | Written by MDAnalysis XYZWriter (release 2.4.3)
       H     5.96811   -4.99550  -14.80084
       O     6.54815   -4.27217  -14.41114
      H1     6.07739   -3.46247  -14.36304
       H     6.11743    0.65753  -19.33787
       O     5.19110    0.67939  -19.03721
      H1     4.67945    1.07155  -19.77431
       H     5.16891   -5.12196  -17.86791
       O     5.90408   -5.72508  -17.83917
      H1     6.76713   -5.24920  -17.75207
       H     1.51384   -0.60865  -16.10555
       O     1.78500   -0.69820  -17.04594
      H1     2.26144    0.12962  -17.23633
       H     4.40575   -1.48045  -13.30946
       O     5.37066   -1.64820  -13.54752
      H1     5.43720   -1.05494  -14.33333
       H     5.59478    0.74686  -16.73041
       O     5.99306    0.10498  -16.15094
      H1     6.70922   -0.29643  -16.68184
       H     1.94714   -0.73741  -14.07579
       O     1.14736   -1.08137  -14.45813
      H1     0.74974   -1.80294  -13.95585
       H     0.29586   -0.82707  -17.80600
       O    -0.62878   -1.13372  -18.02481
      H1    -0.72112   -2.07691  -17.87738
       H     3.73536   -5.72740  -13.56254
       O     4.21948   -6.09007  -14.29868
      H1     3.89154   -5.52016  -15.01325
       H     4.15317    0.81529  -15.13515
       O     3.51481    1.49038  -15.19600
      H1     3.84583    2.19541  -15.75926
       H     2.92872   -3.74030  -16.38588
       O     2.98299   -4.69479  -16.39244
      H1     3.00154   -4.90747  -17.33518
       H     3.16987   -1.38283  -16.67262
       O     3.93164   -1.91525  -16.38762
      H1     4.76141   -1.35336  -16.45837
       H     4.43608   -2.43026  -18.39150
       O     4.27828   -1.91796  -19.20539
      H1     4.57430   -1.00300  -19.07640

