39
frame 3 | Written by MDAnalysis XYZWriter (release 2.4.3)
       H    10.25103   -3.84922   16.37892
       O    10.26205   -4.16096   17.31681
      H1    10.17232   -5.13815   17.30038
       H     8.87740   -7.89770   14.53253
       O     9.62722   -7.47354   14.06903
      H1     9.84954   -8.18810   13.42463
       H     6.26326   -4.52320   16.05761
       O     6.70434   -4.36968   15.22649
      H1     5.95724   -4.04694   14.66728
       H     7.03256  -11.87858   19.23566
       O     6.62947  -11.79341   18.39510
      H1     7.43112  -11.52578   17.87839
       H     4.76506   -9.74818   14.69044
       O     5.02829   -9.48980   13.80193
      H1     4.67748  -10.14945   13.15240
       H     8.94333   -7.17333   17.54778
       O     9.83955   -6.75645   17.80143
      H1    10.49032   -7.25852   17.28855
       H     3.31677   -9.99813   16.30592
       O     4.15732  -10.44150   16.10000
      H1     4.47887  -10.75535   16.97900
       H     5.82290   -8.92570   19.73096
       O     5.78614   -9.23852   18.81150
      H1     6.09176  -10.15163   18.78199
       H     4.56727   -7.89771   18.15395
       O     3.86202   -7.27685   18.01521
      H1     4.26967   -6.45949   17.60782
       H     8.20894   -9.40140   17.05325
       O     8.65104  -10.28451   17.01983
      H1     9.59512  -10.06554   17.19201
       H     7.79692  -10.36230   15.39093
       O     7.55099  -10.22624   14.47678
      H1     6.59551  -10.08154   14.43669
       H     5.32508   -6.97626   15.05161
       O     6.25200   -6.84155   14.76905
      H1     6.40432   -5.86349   14.86960
       H     7.02809   -7.56246   16.28132
       O     7.36866   -7.84992   17.17791
      H1     6.65218   -8.29219   17.66996

