39
frame 0 | Written by MDAnalysis XYZWriter (release 2.4.3)
       H     5.70517   -6.18402    3.23676
       O     6.17187   -5.39115    3.65547
      H1     5.44239   -4.81607    4.07645
       H     7.31561   -6.51381    5.05579
       O     8.09214   -6.73572    5.57890
      H1     8.02045   -7.68349    5.44399
       H     7.13394   -5.36359    2.25314
       O     7.55519   -5.39625    1.35732
      H1     6.89005   -5.13954    0.73120
       H     9.39162   -0.08089    2.64324
       O     8.92305   -0.03553    3.46604
      H1     8.75847    0.92464    3.58941
       H     9.58693   -6.31345    4.75340
       O    10.25422   -5.71660    4.36346
      H1    10.67385   -6.19298    3.62111
       H     6.67664   -5.62875    8.35848
       O     7.53070   -5.74019    7.92105
      H1     7.40645   -6.32335    7.17316
       H    12.72443   -2.23363    1.95500
       O    11.99219   -1.85592    2.46287
      H1    11.87245   -2.43032    3.21009
       H     8.53933   -3.60615    2.76455
       O     9.06128   -3.45610    3.58367
      H1     9.69729   -4.17551    3.69496
       H    11.16018   -6.08358    7.13921
       O    11.73333   -6.53819    6.48656
      H1    11.31068   -6.32223    5.63272
       H    10.92591   -1.92257    8.20063
       O    10.22367   -1.56412    7.65520
      H1     9.88626   -2.34670    7.19686
       H     7.30156   -2.18814    4.65283
       O     6.80882   -1.34447    4.57165
      H1     7.41410   -0.74216    4.09635
       H     8.43166   -4.36394    6.35777
       O     9.07489   -3.69033    6.17014
      H1     8.94147   -3.56148    5.19331
       H    10.42918   -0.58317    6.10070
       O    10.59758    0.11026    5.51212
      H1    10.01999   -0.08516    4.73172

