39
frame 4 | Written by MDAnalysis XYZWriter (release 2.4.3)
       H    -0.44103   -1.82525   17.53648
       O     0.17195   -2.24039   16.92505
      H1     0.16300   -3.12676   17.29181
       H     4.15048   -1.62259   17.49335
       O     4.29050   -0.79964   17.01338
      H1     5.16637   -0.85971   16.63084
       H     0.10839    0.88623   14.86486
       O     0.11942    1.74448   15.25659
      H1    -0.19307    1.61118   16.16235
       H     1.38012   -1.31082   14.45440
       O     0.40635   -1.16140   14.40059
      H1     0.02876   -1.74595   15.05592
       H     2.55232    2.54048   19.67439
       O     3.18811    2.03553   19.13040
      H1     3.94743    2.62604   19.13649
       H    -1.73975   -0.40887   18.83848
       O    -1.74337   -1.40084   18.82831
      H1    -1.43158   -1.68627   19.69894
       H    -0.61444    1.62643   18.47950
       O    -0.29132    1.02689   17.83965
      H1     0.14476    0.27756   18.27575
       H     0.84752    6.07206   17.44828
       O     1.03701    5.44193   16.71020
      H1     1.31375    4.56702   17.03273
       H     1.57762    2.40807   15.95634
       O     2.20493    2.95744   16.48839
      H1     2.42857    2.37598   17.31418
       H    -2.23029   -4.52191   17.49068
       O    -1.78006   -4.35643   16.60875
      H1    -1.72353   -3.40222   16.49130
       H     1.52723   -2.41644   18.25389
       O     1.78788   -2.49320   19.19121
      H1     2.72990   -2.25030   19.32625
       H    -4.97043   -1.25110   15.77543
       O    -4.61414   -1.14784   16.65396
      H1    -4.10687   -0.34726   16.56294
       H    -3.26735   -2.52657   19.15072
       O    -4.07764   -3.03933   18.96869
      H1    -4.23299   -2.73554   18.04538

