39
frame 4 | Written by MDAnalysis XYZWriter (release 2.4.3)
       H     0.02644  -16.65409    1.93991
       O     0.88768  -17.17238    2.01353
      H1     1.34753  -16.60759    2.59770
       H     2.76260  -14.80779    2.10361
       O     2.95881  -15.39002    2.87588
      H1     3.67071  -15.86532    2.48844
       H     0.14437  -12.79790   -4.05405
       O     0.64522  -12.33756   -3.38513
      H1     0.52773  -12.80319   -2.51097
       H     2.39678  -15.19640   -0.19763
       O     2.31791  -14.35183    0.21319
      H1     3.00299  -13.77314   -0.14853
       H    -1.46306  -15.13132   -1.20963
       O    -2.35483  -15.52859   -1.13822
      H1    -2.28674  -16.44412   -1.43832
       H    -1.67682  -15.81566    0.87838
       O    -1.57605  -16.06514    1.79474
      H1    -1.52012  -15.25232    2.34322
       H     2.97160  -17.07576   -1.25124
       O     3.11515  -16.46171   -2.02846
      H1     4.02144  -16.71966   -2.19103
       H    -0.58672  -13.13446   -0.70565
       O    -0.06484  -13.82447   -1.06617
      H1     0.73997  -14.09466   -0.48879
       H     2.47710  -15.27882   -2.97861
       O     2.34258  -14.65954   -3.71908
      H1     1.65688  -14.11531   -3.46091
       H     0.35240  -11.39930    2.24054
       O     0.18004  -12.10503    1.53540
      H1    -0.52948  -11.64810    1.06993
       H    -0.86809  -13.24907    2.71245
       O    -1.39745  -13.64658    3.39384
      H1    -1.85235  -12.90939    3.84974
       H     2.86534  -11.64100   -1.18935
       O     3.57351  -12.28932   -0.98523
      H1     3.64652  -12.64722   -1.88547
       H    -1.84396  -10.57438    0.05342
       O    -1.37649  -11.32028   -0.45944
      H1    -0.63865  -10.86273   -0.82756

