39
frame 4 | Written by MDAnalysis XYZWriter (release 2.4.3)
       H    13.07414   -5.04824    3.93908
       O    13.79696   -5.25087    4.67174
      H1    14.47967   -5.73427    4.20194
       H    10.70506   -3.88242    6.87364
       O    11.63366   -4.24009    6.79878
      H1    11.82313   -4.13621    5.86748
       H    13.08190   -3.98216    7.82823
       O    14.10909   -3.99258    7.89788
      H1    14.36224   -3.36142    7.17577
       H    16.56624   -6.82384    4.22974
       O    15.77911   -7.27309    4.61916
      H1    16.04093   -7.34720    5.51625
       H    14.28045   -3.68762    5.24785
       O    14.52817   -2.79607    5.57128
      H1    15.45149   -2.67830    5.31108
       H    12.13977   -1.96220    2.29713
       O    11.39168   -2.06539    1.70227
      H1    11.18590   -3.01984    1.97644
       H    17.13597   -0.92244    4.06029
       O    17.24725   -1.85169    4.25614
      H1    17.73360   -1.96837    5.05893
       H    13.40203    0.37259    8.15735
       O    13.47919   -0.44378    7.65167
      H1    13.64155   -0.11734    6.78700
       H    15.33273   -5.05458    8.42275
       O    16.06253   -5.56368    8.83311
      H1    16.44850   -6.21195    8.26831
       H    11.62531   -5.14811    2.24143
       O    11.59026   -4.52220    2.98383
      H1    10.74509   -4.68674    3.47472
       H    13.72550   -1.77903    4.49794
       O    13.23818   -1.41769    3.72211
      H1    13.01151   -0.48348    3.87333
       H    12.55580   -7.09004    6.89687
       O    13.06287   -7.56683    6.26366
      H1    13.37281   -6.88570    5.63196
       H    14.97807   -1.98709    0.90136
       O    14.62893   -1.19278    1.27694
      H1    14.33639   -1.41760    2.14070

