39
frame 3 | Written by MDAnalysis XYZWriter (release 2.4.3)
       H     9.39542   14.97993    8.61427
       O     8.54223   14.60764    8.48960
      H1     8.71878   13.88537    7.90663
       H     4.07125   18.60048    7.01229
       O     3.62085   18.17598    7.78033
      H1     2.66289   18.39970    7.58570
       H     5.16465   17.45783   11.47941
       O     4.80844   16.61325   11.75574
      H1     4.87883   16.04237   10.97796
       H     6.44645   15.69944   12.32454
       O     7.33748   15.91872   12.53364
      H1     7.76323   15.06005   12.56030
       H     3.37707   15.15021    6.87282
       O     3.92266   15.36108    7.62835
      H1     3.84528   16.32105    7.65242
       H     1.92939   13.02668    5.63123
       O     2.08009   13.61219    6.37053
      H1     2.35256   13.02806    7.06244
       H     7.79936   18.04627    7.84814
       O     8.42188   17.30949    7.73898
      H1     8.01724   16.56164    8.20391
       H     5.51738   13.54911   10.92811
       O     5.12158   12.93481   11.58483
      H1     4.19511   12.86345   11.30577
       H     1.51208   15.44120   10.00644
       O     2.06809   14.80550    9.55971
      H1     2.38819   15.18240    8.76453
       H     6.56924   12.02544   11.02540
       O     7.11608   11.46903   10.40411
      H1     8.02079   11.63988   10.48118
       H     6.57412   14.66537    9.26031
       O     5.75852   14.87538    9.75726
      H1     5.13629   15.00535    9.02996
       H     6.25344   12.65600    6.79562
       O     6.64445   13.42251    6.45924
      H1     5.95309   14.09483    6.57863
       H     2.37086   13.29591   10.20476
       O     2.65751   12.52044   10.70800
      H1     2.04969   12.14978   11.40200

