39
frame 4 | Written by MDAnalysis XYZWriter (release 2.4.3)
       H     3.82075  -19.80798    7.71655
       O     3.74940  -19.08813    8.33133
      H1     3.85478  -18.23128    7.95806
       H    -3.91572  -16.07824    6.03437
       O    -3.21559  -15.59983    6.59718
      H1    -2.56048  -15.51185    5.92674
       H     3.14521  -16.15449    7.19235
       O     3.48261  -16.26128    8.05090
      H1     2.69023  -16.01942    8.59620
       H    -0.17199  -18.83644    7.29856
       O     0.05645  -17.87081    7.45895
      H1    -0.36059  -17.48174    8.22517
       H    -3.02100  -17.40998    3.99093
       O    -2.29234  -17.52311    4.64857
      H1    -1.65731  -18.12552    4.23465
       H    -3.58433  -18.85970    7.04645
       O    -3.44629  -18.11653    7.68908
      H1    -3.11680  -17.38077    7.10864
       H     4.31872  -17.30150    4.22573
       O     3.53971  -17.88587    4.35753
      H1     2.78638  -17.28308    4.54954
       H     2.73003  -18.72994   11.65274
       O     2.94305  -18.14332   10.88613
      H1     2.74350  -18.57167   10.08850
       H    -3.18865  -18.74728   10.93958
       O    -2.62361  -19.24072   10.28738
      H1    -2.62008  -18.82097    9.44435
       H     0.89470  -17.04608    6.26866
       O     1.41524  -16.52132    5.64000
      H1     0.93442  -15.68848    5.68444
       H     1.29066  -15.42417   10.66671
       O     0.96515  -16.13984   10.06917
      H1     1.33823  -16.91309   10.53634
       H     0.73768  -17.97114    4.69271
       O     0.42972  -18.66775    4.13659
      H1     0.40269  -18.13107    3.30454
       H    -3.27608  -18.86672    5.20238
       O    -3.60266  -19.79536    5.48759
      H1    -2.79580  -20.32309    5.55183

