39
frame 0 | Written by MDAnalysis XYZWriter (release 2.4.3)
       H    14.28369    3.75962    2.27009
       O    15.05959    3.72392    1.69567
      H1    15.36522    2.82312    1.61088
       H    13.86005    8.77027    2.17379
       O    14.52975    8.06800    2.41656
      H1    14.94027    7.83870    1.53623
       H    15.20490   12.18414   -0.57464
       O    15.45483   11.64423    0.15226
      H1    14.89020   10.87282    0.02175
       H    12.39707    3.07584   -0.76974
       O    12.31593    3.99909   -0.84046
      H1    13.18136    4.35651   -0.94144
       H    15.87534    8.79795    2.86154
       O    16.64133    9.17822    3.38894
      H1    17.43851    9.20850    2.74802
       H    17.90425   10.27323   -1.66325
       O    17.42788   10.05967   -0.84981
      H1    16.75738   10.64412   -0.55628
       H    12.05840    6.52557   -1.76777
       O    11.42982    7.24649   -2.00922
      H1    11.20223    7.11041   -2.94045
       H    11.56859    8.19170    1.90224
       O    11.83518    7.37034    2.36523
      H1    12.77800    7.39761    2.59255
       H    16.46151    7.28566    0.17498
       O    15.49318    7.27678    0.06777
      H1    15.28387    6.36063   -0.11771
       H    13.49143    8.62052   -1.61388
       O    14.28840    8.88355   -2.05859
      H1    15.08179    8.63862   -1.54996
       H    14.83265    6.39669   -3.98198
       O    13.93304    6.59904   -3.60707
      H1    14.05769    7.40087   -3.10992
       H    15.50937    5.10935   -1.67459
       O    14.83896    4.93114   -0.99368
      H1    15.17927    4.31758   -0.28804
       H    17.42397    5.46230    1.11378
       O    17.89748    6.09797    0.55559
      H1    18.20377    5.56234   -0.25057

