39
frame 3 | Written by MDAnalysis XYZWriter (release 2.4.3)
       H    17.61555  -11.98654   15.30333
       O    17.64367  -12.59239   16.08891
      H1    16.71842  -12.85097   16.28115
       H    15.26599  -18.27178   19.99500
       O    14.87157  -18.24786   19.10904
      H1    15.52181  -18.22649   18.40527
       H    18.29599  -14.98380   17.78463
       O    18.33496  -15.33401   16.84454
      H1    19.07243  -15.95774   16.94775
       H    14.40439  -16.68633   14.31940
       O    14.77142  -16.45331   15.17491
      H1    14.02033  -16.38857   15.79565
       H    17.16864  -15.62995   13.43862
       O    17.76459  -15.97451   12.76805
      H1    18.63496  -16.10907   13.19759
       H    16.95761  -17.66308   12.63241
       O    16.56700  -18.43179   12.22406
      H1    15.62456  -18.30780   12.08224
       H    13.07613  -16.08534   18.00854
       O    13.10075  -15.96375   17.03814
      H1    12.80613  -15.02146   16.81999
       H    12.14796  -16.86860   19.97354
       O    11.85060  -17.72404   19.55856
      H1    12.60919  -18.04435   19.15894
       H    15.50903  -13.96581   18.22349
       O    15.30577  -13.95266   17.31442
      H1    14.50653  -14.49072   17.12154
       H    10.49556  -18.23575   16.50796
       O    11.31535  -17.94829   16.06112
      H1    11.65252  -17.27640   16.65023
       H    18.81722  -19.22714   15.07053
       O    19.72575  -19.01131   15.27390
      H1    20.11630  -19.88591   15.47729
       H    17.03407  -14.15169   15.25871
       O    16.50771  -14.62783   14.63991
      H1    16.09606  -15.29837   15.22450
       H    15.76142  -17.40085   16.29189
       O    16.42440  -17.69473   16.92708
      H1    16.99719  -16.92320   17.07063

