39
frame 0 | Written by MDAnalysis XYZWriter (release 2.4.3)
       H    13.12877  -11.79985   14.77905
       O    13.00695  -11.13991   14.09248
      H1    12.46353  -11.56154   13.42129
       H    13.34459  -12.85803   17.58961
       O    13.28301  -12.21651   16.88213
      H1    13.96762  -11.52262   16.98024
       H    10.56683   -8.55901   16.78380
       O     9.97085   -8.25082   16.10818
      H1     9.13412   -7.89294   16.48041
       H    12.89280   -7.31846   15.12694
       O    12.26803   -6.58838   15.19137
      H1    11.55742   -6.99712   15.62155
       H    12.28465  -10.14543   17.29661
       O    11.60976   -9.54734   17.60231
      H1    10.90263  -10.24020   17.73442
       H    12.65832   -9.45144   19.07889
       O    13.29423   -9.24982   19.77018
      H1    13.62699   -8.33531   19.64276
       H     9.98285  -12.39794   18.72363
       O    10.11044  -12.07851   17.81647
      H1    10.31612  -12.76917   17.18664
       H    14.25033   -9.00176   15.69169
       O    13.92619   -8.74266   14.83189
      H1    13.53241   -9.58217   14.51729
       H     6.88289  -12.15393   18.55172
       O     7.00657  -11.79279   17.68918
      H1     7.93109  -11.95772   17.56754
       H    15.60843   -9.74849   17.53544
       O    14.63204   -9.76869   17.37912
      H1    14.36805   -9.68086   18.32248
       H     6.27634   -9.45078   19.83268
       O     6.29897   -9.51249   18.82317
      H1     6.76807  -10.29194   18.49532
       H     9.69376   -9.74992   15.13015
       O     9.41149  -10.38515   14.48287
      H1    10.12098  -11.00288   14.34381
       H     6.93960   -6.79444   16.94224
       O     7.74973   -7.08811   17.38432
      H1     7.41287   -7.73408   18.03378

