39
frame 3 | Written by MDAnalysis XYZWriter (release 2.4.3)
       H    12.91712   -3.96034    7.80109
       O    13.76564   -3.53807    8.18467
      H1    14.22890   -3.29933    7.39410
       H    12.05092    2.36367   13.38689
       O    12.49970    1.68782   13.94478
      H1    13.15457    1.25679   13.40502
       H    14.70382    0.91343   11.99977
       O    14.24925    0.16798   12.41981
      H1    13.59814   -0.14084   11.82713
       H    14.44982   -0.80502    8.46623
       O    15.15501   -1.04315    9.04730
      H1    15.32995   -1.98251    8.94137
       H    13.04816   -3.65093   13.74259
       O    12.41260   -3.08065   13.31534
      H1    12.56240   -3.16701   12.33484
       H    13.43840    1.05859    8.09551
       O    13.42554    0.28735    7.48652
      H1    14.17487    0.34042    6.81105
       H    10.14347    1.12059   12.57554
       O     9.52307    0.34426   12.53024
      H1     8.71043    0.79336   12.75808
       H     9.35823   -0.42138    7.98895
       O     9.01592    0.20028    8.65010
      H1     8.55646   -0.26796    9.35890
       H    11.76376   -0.45858    7.17037
       O    10.91728   -0.79589    6.87708
      H1    11.13186   -1.70145    6.67638
       H    12.18439   -0.94157   10.18995
       O    11.96351   -0.07771   10.64850
      H1    11.01251   -0.12877   10.85344
       H    11.47904   -3.58485   10.24090
       O    12.36771   -3.30376   10.54319
      H1    12.82313   -3.37251    9.66905
       H    12.05268    2.74848    8.81969
       O    12.78959    2.32242    9.28589
      H1    12.36451    1.51094    9.64912
       H     9.34308   -3.98979    9.25594
       O     9.90154   -4.09437   10.04588
      H1     9.49169   -3.55927   10.81667

