39
frame 3 | Written by MDAnalysis XYZWriter (release 2.4.3)
       H   -18.64789    1.32723   10.31855
       O   -19.60509    1.33342   10.34318
      H1   -19.88221    1.73928   11.20719
       H   -16.92415   -4.86959   13.74830
       O   -16.18093   -4.28983   13.58392
      H1   -16.18940   -3.69607   14.37341
       H   -16.68447   -2.85543   12.80259
       O   -16.80616   -1.94320   12.47158
      H1   -17.56666   -1.95448   11.87099
       H   -18.39059    1.91312   14.68723
       O   -18.04214    2.53152   14.08819
      H1   -17.38406    2.16112   13.50608
       H   -18.28881   -6.08229   15.02912
       O   -18.65883   -5.67927   14.22105
      H1   -19.32962   -6.27434   13.86759
       H   -15.19633    2.24294   12.49037
       O   -16.09512    1.82228   12.45818
      H1   -16.15986    1.39292   11.51329
       H   -16.80386    1.10334    9.28244
       O   -16.57475    0.39468    9.92767
      H1   -15.96375   -0.33172    9.62332
       H   -16.68806   -0.52680   13.95221
       O   -16.21107   -0.20643   14.76121
      H1   -16.34214   -0.93333   15.43387
       H   -17.18867   -1.51866    8.25239
       O   -16.44219   -2.09183    8.44633
      H1   -15.91153   -2.01828    7.63517
       H   -16.39657   -2.88402   16.69127
       O   -16.84884   -2.75220   15.86902
      H1   -17.81948   -2.62460   16.11552
       H   -18.75180   -4.84888    9.29699
       O   -17.94095   -4.78160    8.81894
      H1   -17.54979   -3.90424    8.81857
       H   -19.56981   -0.72575   10.92285
       O   -19.35175   -1.48466   11.48568
      H1   -19.67006   -1.30105   12.40029
       H   -18.19016    1.28088   16.93480
       O   -18.57292    0.62205   16.27807
      H1   -17.81943    0.14232   15.84374

