39
frame 4 | Written by MDAnalysis XYZWriter (release 2.4.3)
       H    -8.62825    3.63104    6.16404
       O    -8.02247    3.54997    5.40864
      H1    -7.34845    2.88875    5.65323
       H   -10.27372    6.28132    5.20029
       O    -9.58102    6.23122    4.55048
      H1    -8.74620    6.49504    5.01216
       H   -10.83774    4.50111    7.21357
       O   -10.21718    3.77072    7.32444
      H1    -9.62641    4.14953    8.02942
       H    -8.49762    2.59223    2.65449
       O    -8.23719    1.68185    2.65813
      H1    -7.32925    1.71672    2.26232
       H    -8.21222    5.22259    9.41763
       O    -8.04451    4.27551    9.44411
      H1    -7.43283    4.11757    8.71552
       H   -10.96769    2.03188    6.93927
       O   -11.62158    1.28347    6.97469
      H1   -12.18274    1.40172    7.73484
       H    -7.27171    5.93124    5.87040
       O    -7.21551    6.83341    5.61001
      H1    -7.55058    7.28745    6.38296
       H    -5.18104    5.23496    8.06312
       O    -5.88932    4.95114    7.45482
      H1    -5.41702    4.59834    6.72165
       H    -8.86526   -0.31327    5.41303
       O    -8.84110   -0.38637    4.47953
      H1    -8.49398    0.35881    3.97159
       H    -5.94546    1.59888    6.88154
       O    -5.86851    1.38766    5.95928
      H1    -4.99385    1.76155    5.79648
       H    -8.99465    5.19128    3.04549
       O    -8.68980    4.43304    2.48379
      H1    -7.73698    4.55422    2.47113
       H    -4.84699    5.37317    4.65643
       O    -4.11593    4.97507    5.13529
      H1    -4.00490    4.10703    4.75131
       H    -5.25009    6.08225    2.32073
       O    -5.96183    5.72060    2.87194
      H1    -6.43083    6.46289    3.17845

