39
frame 0 | Written by MDAnalysis XYZWriter (release 2.4.3)
       H     3.41683  -20.19296    8.98378
       O     4.01831  -19.46238    9.24805
      H1     3.61175  -18.65766    8.97164
       H    -3.31091  -17.31839    3.94043
       O    -2.89986  -17.13341    4.75187
      H1    -2.21632  -17.84867    4.69948
       H    -2.67686  -16.41042    9.07166
       O    -2.64021  -15.46839    9.50062
      H1    -1.85446  -15.46254   10.07363
       H     3.27189  -17.43575    7.07798
       O     3.40431  -17.24695    8.01469
      H1     2.82311  -16.51223    8.28742
       H    -0.26776  -18.22130    8.36226
       O    -0.17220  -17.26063    8.22140
      H1     0.50293  -17.02192    8.81217
       H    -1.53905  -19.96950    2.77663
       O    -1.59610  -19.29674    3.43688
      H1    -0.72105  -18.89183    3.58686
       H    -2.43124  -17.25105    7.37110
       O    -3.21357  -17.54034    7.82903
      H1    -3.88048  -17.27085    7.12645
       H     2.25503  -18.54754   12.39586
       O     2.64667  -17.90478   11.87275
      H1     3.49831  -18.32730   11.71743
       H    -0.89585  -19.61041   11.74387
       O    -0.05876  -19.56272   11.32788
      H1     0.08224  -18.61275   11.26833
       H    -0.12865  -17.31913    6.59037
       O    -0.06823  -17.51728    5.60120
      H1    -0.03838  -16.63717    5.23317
       H     1.98510  -15.15947   10.44572
       O     1.66437  -16.07753   10.25493
      H1     2.13336  -16.62711   10.89517
       H     1.08524  -18.18424    4.28271
       O     1.16291  -18.48035    3.37417
      H1     0.60567  -17.95691    2.69697
       H     0.23677  -15.45398   10.88048
       O    -0.54047  -15.01612   11.25474
      H1    -0.14355  -14.14244   11.40614

