39
frame 4 | Written by MDAnalysis XYZWriter (release 2.4.3)
       H    -9.30729  -18.95618    1.56198
       O    -9.46999  -19.64370    0.88381
      H1   -10.37420  -19.93897    1.14589
       H    -6.35373  -16.80590    5.68082
       O    -5.49441  -16.46873    5.24038
      H1    -5.91310  -15.63875    4.80963
       H   -10.72445  -18.72503    5.38871
       O   -10.01763  -18.25466    4.91679
      H1    -9.33997  -18.94981    4.84980
       H   -10.14145  -16.99202    1.96904
       O    -9.40921  -17.44986    2.42752
      H1    -9.75056  -17.58705    3.34119
       H   -12.22205  -16.69741    2.06000
       O   -11.65626  -16.61460    1.25325
      H1   -11.84764  -15.67842    1.03479
       H   -10.26373  -14.24098    5.28697
       O    -9.27782  -14.17732    5.37133
      H1    -9.11035  -14.54071    6.28839
       H    -7.21208  -16.73741    2.53432
       O    -6.52738  -16.17662    2.13164
      H1    -7.05377  -15.67600    1.53306
       H    -6.56384  -19.47126    9.39081
       O    -7.01876  -18.77370    8.92385
      H1    -6.42985  -17.98566    8.86607
       H   -12.65697  -18.63668    7.38679
       O   -12.86947  -18.17440    8.17421
      H1   -13.39239  -18.77872    8.75472
       H    -8.59654  -16.86648    5.93510
       O    -7.84253  -16.99473    6.53829
      H1    -7.97180  -16.39680    7.25475
       H   -12.92054  -13.62280    5.26780
       O   -12.08744  -13.99458    5.64403
      H1   -12.49567  -14.75076    6.12800
       H   -10.33319  -18.77133    9.47346
       O   -10.93622  -18.26362   10.05356
      H1   -11.71044  -18.19599    9.45144
       H   -13.92044  -15.71087    3.68015
       O   -12.96327  -15.90829    3.72041
      H1   -12.50299  -15.02475    3.97979

