39
frame 4 | Written by MDAnalysis XYZWriter (release 2.4.3)
       H    -8.12674   -5.49321    7.38782
       O    -8.23347   -4.52577    7.35356
      H1    -7.41110   -4.15803    7.63063
       H    -9.58013   -2.73787    2.31516
       O    -8.72360   -2.33574    2.42783
      H1    -8.78816   -1.74862    3.19359
       H    -9.93320   -5.50822    3.04781
       O    -9.79396   -4.99009    3.87677
      H1    -8.83472   -5.06995    4.09409
       H   -10.77242   -4.84764    8.91201
       O   -10.58895   -5.54969    9.56773
      H1    -9.85140   -6.00018    9.14783
       H   -12.53949   -3.78204    4.57685
       O   -12.53939   -2.85798    4.91171
      H1   -13.46738   -2.52179    4.83377
       H    -9.78967   -3.63163    6.65394
       O   -10.55929   -3.12156    6.83611
      H1   -11.00993   -2.98259    6.02020
       H   -12.95507   -1.58274    7.85154
       O   -13.33462   -0.92070    7.23730
      H1   -12.70741   -0.23437    6.98968
       H   -10.17734   -6.31388    5.42495
       O   -10.11417   -7.06266    6.02684
      H1    -9.88715   -7.87505    5.47551
       H   -11.63315   -6.26301    8.45820
       O   -12.08965   -6.79549    7.74663
      H1   -11.44710   -6.81905    7.04406
       H    -8.86526   -0.31327    5.41303
       O    -8.84110   -0.38637    4.47953
      H1    -8.49398    0.35881    3.97159
       H    -5.91222   -3.34913    3.22576
       O    -6.53213   -3.00974    3.92292
      H1    -7.40312   -2.91515    3.55432
       H   -10.34787    0.06346    7.58574
       O    -9.66359   -0.63664    7.79795
      H1   -10.02545   -1.56842    7.82693
       H   -11.55624   -2.37077    9.66510
       O   -12.18544   -2.64093    9.02144
      H1   -11.72852   -2.97876    8.24006

