39
frame 4 | Written by MDAnalysis XYZWriter (release 2.4.3)
       H   -11.01866    9.62930  -12.73203
       O   -10.76480    8.80367  -13.21251
      H1   -11.49347    8.17544  -13.33508
       H   -13.71436    9.65432   -9.74331
       O   -12.85305    9.36751  -10.00119
      H1   -12.33899   10.20992  -10.03499
       H   -10.25624   11.53116  -10.02394
       O   -11.07424   11.59062   -9.46873
      H1   -11.52926   12.43569   -9.73754
       H   -10.25164   14.24773  -14.26680
       O   -10.63413   13.71682  -13.60660
      H1   -10.08756   12.91525  -13.74701
       H   -10.88919    5.90116  -11.73987
       O   -10.16028    6.21236  -12.28311
      H1    -9.59055    6.62071  -11.63808
       H    -8.00496    9.08201  -12.22028
       O    -8.16510    9.45365  -13.14565
      H1    -9.10911    9.44988  -13.11028
       H    -9.88510   10.76844  -15.41607
       O   -10.61871   10.11430  -15.56798
      H1   -10.54973    9.66946  -14.68512
       H   -12.07113    7.47417  -10.22299
       O   -11.77306    6.58791  -10.02225
      H1   -11.00063    6.68970   -9.48113
       H    -8.65004    8.26328  -14.28628
       O    -8.66749    7.76664  -15.15364
      H1    -9.56894    7.29320  -15.13136
       H   -13.37188   11.25396  -16.52662
       O   -13.09850   10.29849  -16.43108
      H1   -12.36517   10.26836  -15.82423
       H   -12.79466    5.94498  -14.03146
       O   -12.05877    6.36571  -14.47898
      H1   -11.28060    6.09808  -14.00457
       H   -13.55317    9.41102  -11.89895
       O   -13.67525    8.79316  -12.68188
      H1   -14.29103    9.32176  -13.23401
       H    -7.92915   11.79409  -14.75472
       O    -8.77668   11.81164  -14.35528
      H1    -8.63006   11.31018  -13.53222

