39
frame 4 | Written by MDAnalysis XYZWriter (release 2.4.3)
       H   -17.26612    5.00189   19.26986
       O   -16.29013    4.87849   19.54174
      H1   -15.88552    5.75907   19.55672
       H   -13.02334    2.34489   16.83421
       O   -12.19623    2.79226   16.60419
      H1   -11.62238    2.30612   17.20217
       H   -18.69963    6.01049   15.62722
       O   -17.88467    5.46841   15.67254
      H1   -17.93186    5.04830   14.77333
       H   -16.78168    6.60092   15.60966
       O   -16.14198    7.29731   15.35741
      H1   -15.98056    7.04993   14.45238
       H   -17.36418    8.94279   15.47151
       O   -17.96776    9.65113   15.24905
      H1   -18.03096   10.10947   16.12005
       H   -14.23269    3.06131   17.82605
       O   -14.78749    2.29570   17.44734
      H1   -14.79098    1.49159   18.01401
       H   -14.72394    7.08797   16.48684
       O   -14.01298    6.85173   17.14355
      H1   -13.47972    6.13021   16.76971
       H   -14.35618    4.85603   18.89186
       O   -13.68385    4.20399   18.83541
      H1   -12.86114    4.69575   19.02179
       H   -14.31837    7.22224   18.81534
       O   -14.81772    7.21987   19.69324
      H1   -14.12429    7.04575   20.35747
       H   -16.22750    4.62481   15.79274
       O   -15.27778    4.37017   15.74366
      H1   -15.23378    3.56748   16.21582
       H   -18.41172    2.95507   18.22341
       O   -17.76019    2.26229   18.20181
      H1   -16.87012    2.77053   18.26042
       H   -17.72580    1.84564   16.48942
       O   -17.92056    1.76990   15.53359
      H1   -17.48561    0.91211   15.30279
       H   -19.63124    5.30317   18.13848
       O   -18.91446    4.68226   17.99278
      H1   -18.52345    4.88293   17.10618

