39
frame 4 | Written by MDAnalysis XYZWriter (release 2.4.3)
       H   -18.03110  -13.19713  -10.99335
       O   -17.41046  -12.71301  -11.54716
      H1   -17.08105  -12.07343  -10.91840
       H   -11.24056  -15.27986  -11.62596
       O   -11.18844  -15.06636  -10.69307
      H1   -10.44488  -15.48501  -10.23233
       H   -13.63667   -9.10015  -11.28899
       O   -14.44501   -9.19504  -11.78458
      H1   -15.13971   -9.51176  -11.18643
       H   -12.35861  -16.16077  -13.40353
       O   -11.41789  -15.94430  -13.28676
      H1   -11.07323  -15.48512  -14.05068
       H   -14.60304  -10.22145  -13.27541
       O   -14.97023  -10.73357  -14.01214
      H1   -15.94248  -10.62942  -13.88987
       H   -16.97505   -9.58033  -10.44364
       O   -16.43144  -10.37628  -10.51649
      H1   -16.09505  -10.46055   -9.58113
       H   -14.42727  -12.04591  -12.98946
       O   -14.08778  -12.54267  -12.25116
      H1   -13.23363  -12.19301  -11.93503
       H   -10.87153  -12.13141  -12.00500
       O   -11.34401  -12.32088  -11.20691
      H1   -11.18478  -13.31456  -11.01847
       H   -15.65113  -14.37579  -13.55025
       O   -15.81817  -15.09780  -14.18639
      H1   -15.64815  -14.83792  -15.07428
       H   -18.29525  -10.92788  -14.10422
       O   -18.86722  -11.23925  -13.37667
      H1   -18.20165  -11.64838  -12.76636
       H   -13.73190  -17.49310  -14.59820
       O   -13.83764  -16.87243  -13.84339
      H1   -14.52289  -16.26891  -14.16047
       H   -15.18440  -14.93153  -10.10258
       O   -16.06303  -15.16964  -10.41927
      H1   -16.39707  -14.37563  -10.73596
       H   -12.91048  -15.29327   -9.77213
       O   -13.67594  -15.13228   -9.18368
      H1   -13.59800  -15.42465   -8.29213

