39
frame 5 | Written by MDAnalysis XYZWriter (release 2.4.3)
       H   -15.67100    6.37508  -17.44057
       O   -15.64911    5.37605  -17.31658
      H1   -14.80932    4.98985  -17.66778
       H   -12.89404    7.74495  -16.55191
       O   -12.98646    8.05973  -17.44124
      H1   -13.22139    8.96697  -17.31504
       H   -19.05289    7.19648  -15.82157
       O   -18.81112    7.04654  -16.72392
      H1   -18.77760    6.10813  -16.89846
       H   -15.85344   10.62182  -18.69725
       O   -16.67844   10.42273  -18.28219
      H1   -16.41310    9.64830  -17.70349
       H   -17.48620   12.08358  -13.39739
       O   -17.80025   11.24488  -13.71410
      H1   -17.77539   10.66914  -12.93799
       H   -19.45485    8.78124  -17.56071
       O   -19.88552    9.54107  -17.96111
      H1   -19.08899    9.98732  -18.39940
       H   -17.02338    7.80845  -16.50531
       O   -16.17479    8.23541  -16.70692
      H1   -16.05084    8.72599  -15.83388
       H   -10.56859   11.03641  -16.83244
       O   -10.92981   11.07732  -17.74659
      H1   -11.90393   10.97765  -17.66566
       H   -15.13756   10.53503  -14.97504
       O   -15.67062    9.82053  -14.49539
      H1   -16.40915   10.33338  -14.14496
       H   -18.90334   12.44203  -16.62947
       O   -18.54832   12.61321  -17.53144
      H1   -18.00165   11.90176  -17.81488
       H   -13.47013   13.41770  -17.87388
       O   -14.07807   13.19144  -17.15596
      H1   -14.99272   13.38498  -17.50287
       H   -13.84581   11.43114  -16.79963
       O   -13.45126   10.63943  -16.39603
      H1   -12.62935   10.93120  -15.97406
       H   -16.24213   14.19257  -19.05580
       O   -16.43774   14.26126  -18.07253
      H1   -17.12299   13.63206  -17.90952

