39
frame 4 | Written by MDAnalysis XYZWriter (release 2.4.3)
       H   -18.73549   11.25477    5.61321
       O   -18.83375   11.37547    6.55130
      H1   -18.18532   12.08770    6.69701
       H   -14.39944    9.68990    6.78679
       O   -14.04716   10.33359    7.43172
      H1   -13.35724    9.89903    7.91022
       H   -16.40008    9.44790    8.44591
       O   -17.23368    9.22517    8.01312
      H1   -17.45568    9.95532    7.46661
       H   -15.03626   14.93802    7.16814
       O   -15.67980   15.31116    7.79737
      H1   -16.13726   14.57648    8.22351
       H   -19.41006    7.24401    3.82074
       O   -19.11105    8.12679    4.10184
      H1   -18.12193    8.01958    4.11863
       H   -17.65750   11.11829    3.18604
       O   -17.98890   10.79567    4.02421
      H1   -18.63287   10.12551    3.78828
       H   -18.79140   13.73686    8.43771
       O   -18.17936   13.84142    7.74611
      H1   -18.36349   14.69617    7.31744
       H   -17.24282    7.52354    7.34761
       O   -17.41969    6.63978    7.12577
      H1   -18.41844    6.64809    6.96120
       H   -16.59256   11.22806    4.98121
       O   -15.95351   11.64436    5.55689
      H1   -15.14648   11.09953    5.59324
       H   -13.14176   13.49610    5.82666
       O   -13.95588   13.68308    6.40649
      H1   -14.64012   13.24818    5.87624
       H   -18.79222    8.78801    8.87850
       O   -19.68107    8.45762    9.09420
      H1   -19.60612    8.28780   10.02032
       H   -19.07271   12.47001   10.93944
       O   -18.79139   13.39529   10.78874
      H1   -18.97672   13.88555   11.60050
       H   -16.75352   12.78955    8.18534
       O   -15.98484   12.44007    8.61574
      H1   -15.44894   12.05052    7.89779

