39
frame 4 | Written by MDAnalysis XYZWriter (release 2.4.3)
       H     4.01303   -4.66350   -5.68998
       O     4.22203   -3.80122   -6.04765
      H1     3.53985   -3.46191   -6.65976
       H     1.75088    3.50232  -11.11627
       O     2.44403    2.91278  -10.71944
      H1     2.63117    3.28898   -9.82573
       H     2.27165   -2.63894   -5.58854
       O     1.51590   -2.15502   -5.32609
      H1     0.86408   -2.23449   -6.03939
       H     4.60334    3.70108   -8.40273
       O     3.64497    3.58666   -8.53143
      H1     3.26402    2.99955   -7.86590
       H     4.97795    0.65097   -9.52005
       O     5.54997    0.79598  -10.27932
      H1     4.93217    1.07700  -11.03141
       H     2.62810   -1.14042  -11.66160
       O     2.96324   -1.77138  -12.30018
      H1     3.09320   -2.61388  -11.90205
       H     2.80248    0.73774   -4.31440
       O     1.96179    0.38051   -4.69680
      H1     2.08252   -0.57712   -4.81393
       H     0.68696    0.27728   -9.84356
       O     1.40230    0.15997  -10.45422
      H1     1.95860    0.94426  -10.48913
       H     2.14134    1.03635   -6.43489
       O     2.18595    1.46086   -7.29265
      H1     1.27010    1.63239   -7.46273
       H     5.22839   -1.24266   -5.71205
       O     5.70618   -0.73804   -6.38102
      H1     6.34472   -0.15059   -5.90237
       H     6.93563   -0.58014  -10.95863
       O     7.40731   -0.99794  -11.70770
      H1     6.67252   -1.31511  -12.34774
       H     4.59721   -0.14276   -7.50915
       O     3.92581   -0.12458   -8.21898
      H1     3.29353    0.50706   -7.83440
       H     3.12156   -2.10527   -8.52312
       O     2.86933   -3.01762   -8.29417
      H1     2.31561   -3.38015   -8.99757

