39
frame 5 | Written by MDAnalysis XYZWriter (release 2.4.3)
       H    -8.17671   -6.52791   -4.40393
       O    -8.24764   -6.08314   -3.56796
      H1    -9.24252   -5.92789   -3.45418
       H    -9.20323   -5.73075   -6.54722
       O    -8.76069   -6.56897   -6.35251
      H1    -7.92857   -6.53929   -6.89459
       H   -14.55869   -8.10642   -6.17087
       O   -13.99045   -8.63573   -5.58369
      H1   -13.19460   -8.58254   -6.14997
       H   -12.97606   -6.96159   -8.61153
       O   -13.03570   -7.21804   -7.65257
      H1   -12.08747   -7.55103   -7.42168
       H   -12.03413  -10.46631   -5.85648
       O   -11.51307  -10.22922   -5.02474
      H1   -12.12813  -10.34345   -4.27102
       H    -9.99525  -13.97416   -4.68421
       O    -9.57830  -13.26920   -5.09003
      H1   -10.17971  -12.53368   -4.93325
       H   -10.90581   -8.91161   -5.87451
       O   -10.89678   -8.07327   -6.41946
      H1   -10.04895   -7.62885   -6.29283
       H    -8.18335   -9.41803   -5.90347
       O    -7.76555   -9.70139   -5.04519
      H1    -7.97725  -10.60285   -4.85103
       H    -9.05119   -9.18182   -3.35738
       O    -9.11771   -8.53793   -2.67080
      H1    -8.94349   -7.65856   -3.05839
       H   -13.65177   -7.48538   -4.29306
       O   -13.68871   -6.68604   -3.73324
      H1   -12.82505   -6.33275   -3.67791
       H   -11.80189  -10.80386   -8.04901
       O   -12.48789  -10.35813   -7.54440
      H1   -13.23947  -10.95903   -7.48245
       H    -7.93403   -9.02890   -8.77363
       O    -8.24973   -9.85524   -8.31384
      H1    -9.01820   -9.99825   -8.86248
       H   -12.23492   -5.84914   -6.49930
       O   -12.15462   -4.99881   -6.04064
      H1   -11.51213   -4.53169   -6.51479

