39
frame 0 | Written by MDAnalysis XYZWriter (release 2.4.3)
       H   -10.78352  -16.02988   -7.10330
       O   -10.37781  -15.70651   -7.90041
      H1   -10.03279  -16.51610   -8.32587
       H    -9.49369  -18.97306   -7.33927
       O    -9.47133  -19.07114   -6.41392
      H1   -10.34799  -18.89963   -6.04145
       H    -9.92012  -16.05290   -3.06312
       O    -9.60970  -15.58645   -3.84832
      H1    -8.90070  -16.17044   -4.20607
       H   -12.14074  -18.29484   -5.12734
       O   -11.51647  -18.97353   -4.80937
      H1   -12.03276  -19.79228   -4.83177
       H    -8.33660  -18.08296   -5.49455
       O    -7.70287  -17.34415   -5.27395
      H1    -7.40269  -17.03925   -6.16995
       H    -9.44886  -18.44099   -1.36062
       O    -9.51351  -18.43297   -2.33442
      H1   -10.39163  -18.19418   -2.57750
       H   -10.20091  -18.10104   -9.91229
       O    -9.62382  -17.96580   -9.15412
      H1    -8.72731  -18.27913   -9.33748
       H    -5.62329  -17.89198   -2.83449
       O    -5.38115  -17.85944   -3.79462
      H1    -6.15769  -17.49432   -4.20722
       H   -14.62309  -18.92965   -7.86835
       O   -15.36758  -19.42999   -7.73593
      H1   -15.65042  -19.29818   -6.77817
       H   -12.57799  -15.03208   -5.54530
       O   -11.83352  -15.73843   -5.48862
      H1   -11.16427  -15.40112   -4.85837
       H   -15.26085  -18.50583   -4.46949
       O   -14.68408  -17.90202   -4.94449
      H1   -15.33664  -17.16535   -5.27789
       H    -7.97205  -17.17638   -2.41714
       O    -7.29831  -16.50833   -2.09148
      H1    -7.35366  -15.77950   -2.75195
       H   -12.39769  -17.27688   -2.10537
       O   -12.07197  -16.59666   -2.73602
      H1   -12.46193  -16.83458   -3.60961

