39
frame 0 | Written by MDAnalysis XYZWriter (release 2.4.3)
       H     4.54460  -18.91574  -13.28014
       O     5.05314  -19.01167  -14.05835
      H1     5.28464  -19.93794  -14.14770
       H     6.49076  -16.40067  -11.07166
       O     5.57272  -16.58302  -10.99427
      H1     5.12184  -16.21801  -11.76932
       H     1.09044  -18.22381  -15.60880
       O     1.43088  -18.23226  -14.69172
      H1     1.61550  -19.12101  -14.44098
       H     3.02845  -17.27383  -15.38445
       O     3.93027  -17.20860  -15.62093
      H1     4.28475  -17.95619  -15.14248
       H    -0.12548  -15.48809  -12.87237
       O     0.60921  -15.71170  -13.44587
      H1     0.32912  -16.28896  -14.13793
       H     2.72398  -18.12531  -11.09366
       O     2.31583  -17.33280  -10.78801
      H1     2.76556  -16.59623  -11.23446
       H     1.27690  -14.30257  -14.10801
       O     1.83162  -13.61539  -14.50422
      H1     1.29130  -12.83156  -14.63471
       H     3.61295  -14.96162  -13.55350
       O     3.47437  -15.48017  -12.73744
      H1     2.55719  -15.77868  -12.82578
       H     0.61053  -17.74224  -10.09779
       O    -0.24885  -17.56026   -9.69357
      H1    -0.48250  -18.30967   -9.09792
       H     1.50250  -16.21315   -7.52819
       O     0.56457  -16.07141   -7.49822
      H1     0.28960  -16.22160   -8.43680
       H     0.88747  -13.11560  -10.67565
       O     0.23319  -13.25776  -10.00254
      H1     0.69026  -13.34756   -9.11625
       H     4.97588  -15.90403   -9.18897
       O     4.69240  -15.58708   -8.31362
      H1     5.51860  -15.22259   -8.05386
       H     3.67810  -16.02658   -7.16212
       O     2.91422  -16.37842   -6.63491
      H1     2.60816  -15.75822   -5.97201

