39
frame 5 | Written by MDAnalysis XYZWriter (release 2.4.3)
       H   -15.43413  -14.11015  -18.63296
       O   -16.12473  -14.03065  -19.33102
      H1   -15.74748  -13.54538  -20.09492
       H   -18.84925  -13.33249  -15.66203
       O   -19.18236  -14.18760  -15.38734
      H1   -18.34325  -14.68733  -15.38974
       H   -14.88997  -10.60271  -14.22806
       O   -14.77255  -11.10337  -15.05354
      H1   -15.69224  -11.30067  -15.40484
       H   -16.43625   -7.83103  -17.96649
       O   -17.18131   -7.30388  -17.70626
      H1   -17.95584   -7.67487  -18.09806
       H   -15.80102  -10.31799  -17.52261
       O   -15.11529   -9.69042  -17.26830
      H1   -14.86958   -9.88867  -16.34129
       H   -19.64020   -7.71396  -19.84669
       O   -19.64823   -7.88471  -18.87296
      H1   -19.87021   -8.83380  -18.74112
       H   -13.74666   -9.79198  -18.36488
       O   -12.90500   -9.56484  -18.80807
      H1   -12.54898  -10.46589  -18.99010
       H   -17.45480  -11.64919  -16.93996
       O   -17.19661  -11.50971  -15.97840
      H1   -17.56843  -10.62541  -15.78608
       H   -15.39625   -7.35390  -15.14077
       O   -15.87895   -7.73151  -14.38856
      H1   -16.68054   -8.10994  -14.81871
       H   -13.75046  -13.81839  -17.19732
       O   -14.61158  -14.34941  -17.22061
      H1   -14.88275  -14.35041  -16.29813
       H   -19.61766  -10.87387  -13.65767
       O   -18.92529  -10.33080  -13.32770
      H1   -18.22005  -10.94846  -13.04721
       H   -18.97742   -8.80436  -15.30976
       O   -18.02270   -8.79872  -15.56075
      H1   -17.80267   -8.27350  -16.31484
       H   -17.88874  -11.21994  -19.00692
       O   -18.03505  -12.00116  -18.46464
      H1   -17.57331  -12.66302  -18.96939

