39
frame 5 | Written by MDAnalysis XYZWriter (release 2.4.3)
       H     3.90811   -1.91018   13.35433
       O     4.35804   -2.74951   13.47928
      H1     3.72832   -3.30118   13.94272
       H    -0.41081    3.90659   13.24734
       O    -0.86302    4.02999   14.06225
      H1    -0.65447    3.39120   14.75341
       H     0.06012   -1.63178   17.83051
       O     0.36352   -2.10781   17.08542
      H1     1.09205   -2.66309   17.33901
       H    -0.46733   -0.94208   13.29661
       O    -1.28874   -0.98203   12.72022
      H1    -1.64541   -0.11972   12.83089
       H     4.67139   -1.07704   17.23755
       O     4.67395   -0.44900   16.49370
      H1     5.35550   -0.88018   15.95013
       H    -0.11203    0.85585   15.29963
       O    -0.12477    1.82979   15.52616
      H1    -0.54310    1.66626   16.35216
       H     0.21413   -3.82326   14.46182
       O    -0.75328   -3.60630   14.28703
      H1    -0.79008   -2.68814   14.15353
       H     3.28121    0.65172   13.77079
       O     3.15351   -0.25767   14.15223
      H1     3.70082   -0.28718   14.99377
       H     1.35917   -0.35198   14.82072
       O     0.48520   -0.70931   14.68678
      H1     0.29664   -1.32348   15.41574
       H     1.85308    2.13901   15.97287
       O     2.76156    2.31639   16.10902
      H1     2.96195    1.77891   16.93937
       H     1.61392   -4.20433   13.05260
       O     1.95147   -4.31485   13.96601
      H1     1.98529   -5.30305   14.08145
       H     3.87394    2.61202   13.35238
       O     3.57118    1.88759   12.79763
      H1     3.13422    2.28044   12.02719
       H     2.22587   -4.69109   17.06099
       O     2.88954   -4.05142   16.77770
      H1     2.74491   -3.84491   15.82593

