39
frame 4 | Written by MDAnalysis XYZWriter (release 2.4.3)
       H    -3.82754   14.15542  -11.58980
       O    -4.31922   13.58568  -10.98438
      H1    -4.70768   12.90886  -11.52831
       H    -2.31054   17.47654  -13.08922
       O    -2.06680   18.19304  -13.66286
      H1    -1.89243   17.76756  -14.52182
       H    -3.87448   18.91470  -13.86305
       O    -4.66836   19.46252  -13.73355
      H1    -4.74157   19.71771  -12.78029
       H     0.55232   16.62755  -12.76479
       O     0.64461   16.08825  -11.94275
      H1     0.41394   16.72740  -11.25689
       H    -0.34484   19.19473  -10.44701
       O    -0.37962   18.94051   -9.53169
      H1    -1.27296   18.94191   -9.15229
       H    -0.73010   16.79543  -16.16336
       O    -1.69728   16.69059  -16.18159
      H1    -1.91537   16.53742  -17.08600
       H    -0.85643   13.73278  -13.26923
       O    -0.97998   13.92839  -12.37459
      H1    -0.43374   14.65755  -12.12646
       H     1.45570   16.96427  -14.64647
       O     0.74035   17.62086  -14.51991
      H1     1.21978   18.37358  -14.90494
       H    -4.55250   16.48383  -12.55012
       O    -5.49721   16.71470  -12.72342
      H1    -5.41157   17.55036  -13.25914
       H    -3.45123   14.27399  -16.52297
       O    -2.87473   13.51369  -16.68010
      H1    -3.39173   12.82178  -17.04766
       H    -0.05158   18.99408  -12.93359
       O     0.32437   19.34195  -12.15283
      H1     1.16188   19.71207  -12.49043
       H    -2.30755   15.40557  -12.01691
       O    -3.06777   16.00627  -11.96572
      H1    -3.25257   16.19170  -11.04220
       H    -4.03840   16.31101   -8.66696
       O    -4.36569   16.95839   -9.33992
      H1    -4.03042   17.83592   -9.08950

