39
frame 4 | Written by MDAnalysis XYZWriter (release 2.4.3)
       H    13.54286   -9.09977    6.57406
       O    13.47611  -10.07841    6.70484
      H1    14.19882  -10.57485    6.29436
       H    13.65744   -9.35655    3.16885
       O    14.42477   -9.11679    2.59825
      H1    15.06399   -8.58036    3.12767
       H    13.44308  -13.70038    9.40477
       O    13.36432  -12.72579    9.24606
      H1    12.52790  -12.56748    8.66874
       H    12.28937  -11.37329    4.00405
       O    12.10351  -10.41046    4.05307
      H1    12.38405  -10.19842    4.94911
       H    16.56624   -6.82384    4.22974
       O    15.77911   -7.27309    4.61916
      H1    16.04093   -7.34720    5.51625
       H    14.42905   -8.70838    9.19602
       O    15.03014   -9.34777    8.82415
      H1    14.47241   -9.83619    8.17694
       H    11.70525   -7.53066    5.05852
       O    10.95615   -7.37042    4.45414
      H1    11.27677   -7.55062    3.55654
       H    14.69390  -12.33484    8.06424
       O    15.24733  -12.36365    7.26676
      H1    16.16332  -12.22495    7.49573
       H    12.55580   -7.09004    6.89687
       O    13.06287   -7.56683    6.26366
      H1    13.37281   -6.88570    5.63196
       H    11.36428   -5.64427    7.67749
       O    11.29491   -6.52003    8.16509
      H1    11.32519   -6.18517    9.11938
       H    16.06985   -8.33918    7.44446
       O    16.63294   -7.66412    6.98690
      H1    17.47490   -8.08490    6.91740
       H    10.43275  -12.01413    8.07935
       O    11.33488  -12.17174    7.72290
      H1    11.09365  -13.01014    7.31116
       H    11.28001   -8.81737    8.51159
       O    10.75434   -9.32341    7.86352
      H1    11.37843  -10.03438    7.69011

