39
frame 6 | Written by MDAnalysis XYZWriter (release 2.4.3)
       H    -0.41061   -9.16519  -11.22475
       O     0.49255   -9.16697  -11.53799
      H1     0.45387   -9.56066  -12.43293
       H     3.20328   -4.55530  -11.77035
       O     2.60837   -4.64353  -12.56534
      H1     1.83334   -5.19765  -12.32298
       H     0.07709   -4.46616  -10.81129
       O    -0.07271   -3.62076  -10.37323
      H1    -0.68126   -3.79459   -9.69803
       H    -1.14410   -6.34950  -10.67785
       O    -1.83041   -6.17945  -10.05424
      H1    -2.61527   -5.90549  -10.59320
       H     1.06666   -7.50468  -11.30762
       O     1.04729   -6.55126  -11.01819
      H1     1.77647   -6.41457  -10.44239
       H    -0.45414   -7.66968  -14.32703
       O     0.20430   -7.23862  -13.78079
      H1     0.97380   -7.80892  -13.80840
       H    -4.72283   -6.49759   -9.92819
       O    -4.93372   -7.30925   -9.42787
      H1    -4.42614   -7.24284   -8.58115
       H    -4.19323   -4.35116  -10.98727
       O    -4.16494   -5.32448  -10.88541
      H1    -4.15997   -5.48334  -11.83691
       H    -3.50037   -5.97580  -14.14857
       O    -4.19653   -6.00709  -13.43542
      H1    -4.96855   -5.54907  -13.76025
       H    -0.62468   -2.85126  -12.08106
       O    -0.98983   -2.52060  -12.86365
      H1    -0.68160   -3.21252  -13.50623
       H     0.51757   -7.63748   -7.78069
       O     0.15390   -6.73105   -8.01471
      H1    -0.54225   -6.85176   -8.71138
       H    -2.13634   -8.10392  -10.12309
       O    -2.76300   -8.85736  -10.03864
      H1    -3.60745   -8.44233   -9.83224
       H     0.02094   -5.56355  -14.12850
       O    -0.11788   -4.62664  -14.31667
      H1     0.66939   -4.47930  -14.87987

