39
frame 5 | Written by MDAnalysis XYZWriter (release 2.4.3)
       H   -19.75381    0.71975   -9.33734
       O   -19.15761    1.28699   -8.85483
      H1   -18.70802    0.67686   -8.25428
       H   -17.55252    0.86766  -15.02879
       O   -17.21802    1.26038  -14.17503
      H1   -17.06399    2.18831  -14.44152
       H   -15.64326    0.38086  -13.46292
       O   -15.09988   -0.04813  -12.79427
      H1   -14.26637   -0.29188  -13.19198
       H   -17.32396    4.03076   -9.83478
       O   -17.38146    3.23516  -10.32731
      H1   -17.81285    2.69387   -9.66761
       H   -15.10094    1.18128  -11.31863
       O   -15.24937    1.86949  -10.63632
      H1   -16.09830    2.37114  -10.69109
       H   -19.05289    7.19648  -15.82157
       O   -18.81112    7.04654  -16.72392
      H1   -18.77760    6.10813  -16.89846
       H   -16.94787    6.32722  -12.78649
       O   -16.24900    6.18662  -12.13461
      H1   -15.47366    6.72274  -12.29327
       H   -18.21065    3.87365  -11.85736
       O   -18.95912    4.25839  -12.31304
      H1   -19.30687    3.43788  -12.74220
       H   -16.87070    6.27223  -10.30374
       O   -17.15804    6.12588   -9.37776
      H1   -18.08723    6.17311   -9.35251
       H   -15.35098    4.75748  -12.38626
       O   -14.85788    3.95464  -12.68568
      H1   -15.01284    3.32470  -12.00642
       H   -18.35336    4.54137  -16.10751
       O   -18.24594    4.37490  -17.02146
      H1   -17.38977    4.83046  -17.23466
       H   -15.76508    4.38309  -15.88971
       O   -16.17212    3.94090  -15.13446
      H1   -15.67147    4.18911  -14.35993
       H   -19.01942    7.15569  -13.43846
       O   -18.18467    7.57853  -13.61333
      H1   -18.02866    8.22762  -12.90842

