39
frame 5 | Written by MDAnalysis XYZWriter (release 2.4.3)
       H     6.08610    0.22537  -19.50367
       O     5.49823    0.44215  -18.73069
      H1     4.68025    0.79408  -19.11903
       H     2.14800   -4.35472  -19.28466
       O     2.33309   -5.05941  -18.67126
      H1     3.10717   -5.44613  -19.06287
       H     1.12507    0.62352  -16.47862
       O     1.41312   -0.08395  -17.04913
      H1     2.27504    0.28729  -17.31713
       H    -4.67316   -1.70602  -19.62354
       O    -4.36841   -1.09357  -18.95431
      H1    -3.60865   -0.68536  -19.37418
       H    -1.47818   -4.45959  -18.88475
       O    -2.18078   -3.80060  -19.04785
      H1    -2.34244   -3.27968  -18.25264
       H    -0.62169   -0.86675  -17.28913
       O    -1.47246   -1.05434  -17.64698
      H1    -1.92094   -1.70372  -17.01822
       H     0.95588   -1.87354  -18.75014
       O     1.37775   -2.42626  -19.43102
      H1     2.29474   -2.23482  -19.37923
       H    -0.23823   -6.48780  -19.31757
       O    -0.32965   -5.71041  -18.75122
      H1     0.53519   -5.27754  -18.73628
       H     2.49440   -3.59537  -15.81340
       O     2.39868   -4.56426  -15.82331
      H1     2.63773   -4.77744  -16.75728
       H     2.02297   -0.92010  -15.61303
       O     2.52096   -1.67277  -15.21167
      H1     2.40355   -1.68468  -14.25934
       H    -2.24336   -7.88739  -17.20293
       O    -2.10784   -6.96359  -16.99273
      H1    -1.36763   -6.68612  -17.53262
       H    -0.33759   -5.63301  -14.13496
       O     0.39618   -5.03608  -13.95453
      H1     0.90765   -5.04987  -14.76421
       H     4.57942   -2.78336  -17.75965
       O     4.28372   -2.23917  -18.49069
      H1     4.82403   -1.43195  -18.47503

