39
frame 6 | Written by MDAnalysis XYZWriter (release 2.4.3)
       H   -16.84513   -4.59564   13.66540
       O   -16.01418   -4.06392   13.61411
      H1   -15.88141   -3.60982   14.44235
       H   -13.83418   -2.20495   14.79690
       O   -13.17252   -1.52800   14.44634
      H1   -12.43012   -2.01330   14.08748
       H   -16.14321   -2.41902   12.58836
       O   -16.40644   -1.78773   11.89528
      H1   -17.32923   -1.93989   11.68223
       H   -18.85012   -2.86287   15.31909
       O   -18.79442   -3.85884   15.45614
      H1   -18.91894   -3.93631   16.41353
       H   -15.29337   -0.34316   12.55921
       O   -14.66749    0.23350   12.94815
      H1   -14.12089   -0.35236   13.51614
       H   -13.56310   -6.64812   16.55138
       O   -14.08932   -5.84275   16.42027
      H1   -15.03470   -6.14475   16.28331
       H   -13.05983   -0.86591   17.85816
       O   -12.46627   -1.60876   18.19972
      H1   -12.03035   -1.90994   17.38348
       H   -15.09258   -2.96521   16.89397
       O   -15.42869   -2.45730   16.16389
      H1   -16.31168   -2.11436   16.46811
       H   -17.65689   -0.54063   14.49535
       O   -18.47765   -1.11627   14.61864
      H1   -19.08841   -0.57536   15.10786
       H   -17.22543    1.92186   17.22380
       O   -16.79325    1.11440   17.13885
      H1   -15.95575    1.14956   17.55222
       H   -16.63935    0.89514   15.60712
       O   -16.62058    0.85251   14.65736
      H1   -15.74833    0.69606   14.24511
       H   -14.21381   -4.44902   17.87480
       O   -14.60297   -3.80096   18.42793
      H1   -13.85218   -3.26064   18.70371
       H   -13.82324   -5.47844   14.78120
       O   -13.56820   -5.18828   13.85951
      H1   -14.41757   -4.98413   13.40297

