39
frame 5 | Written by MDAnalysis XYZWriter (release 2.4.3)
       H     6.52919   16.24340  -12.99391
       O     6.34287   16.85427  -13.70929
      H1     6.98919   17.54845  -13.47760
       H    16.88899   16.35818  -14.91469
       O    16.79010   16.87061  -15.76414
      H1    15.85742   16.68246  -15.91269
       H     8.38510   19.78660  -14.68786
       O     8.86236   19.20203  -14.08030
      H1     9.82259   19.33981  -14.02439
       H    12.73982   15.45783   -9.20685
       O    13.03316   15.91904  -10.00321
      H1    12.73767   15.23423  -10.58130
       H     9.00543   16.93425  -14.11502
       O     9.63151   16.23766  -14.47029
      H1     9.33008   15.45766  -14.05548
       H    16.43987   18.10898  -12.07417
       O    16.26665   18.94653  -11.63068
      H1    15.43575   18.80706  -11.20315
       H     9.01221   16.36590  -16.53918
       O     8.53912   16.79967  -17.21908
      H1     7.62073   16.48729  -17.04758
       H    14.89253   19.06683  -13.07984
       O    14.78910   19.15292  -14.10277
      H1    15.67296   19.54087  -14.35073
       H    12.87070   16.43002  -14.19324
       O    12.19716   16.50438  -13.46513
      H1    11.33432   16.50612  -13.86196
       H    11.82409   19.54060  -14.53036
       O    11.56775   19.24799  -13.64267
      H1    11.75446   18.28303  -13.72878
       H     9.79181   18.34836   -8.62481
       O     9.33579   18.40853   -9.49390
      H1     9.80228   19.02965  -10.06420
       H    12.10032   13.77468  -12.15668
       O    12.99285   14.18784  -12.21746
      H1    12.78692   14.97166  -12.78412
       H    13.93693   17.61606  -15.26069
       O    13.97636   16.61867  -15.28916
      H1    13.59609   16.26538  -16.06927

