39
frame 6 | Written by MDAnalysis XYZWriter (release 2.4.3)
       H    16.91880   -1.69760   12.23030
       O    16.79679   -2.22382   13.06648
      H1    16.85086   -1.55373   13.71101
       H    15.85518   -2.17605   17.74488
       O    16.01292   -1.18976   17.65895
      H1    15.14191   -0.87372   17.95110
       H    17.70077    0.06453   15.31393
       O    17.07767   -0.66122   15.32735
      H1    16.98839   -0.96492   16.20789
       H    14.43400    1.43753   12.99857
       O    13.69814    1.83209   12.54362
      H1    13.17386    1.16961   12.07602
       H    16.18557    2.86309   13.50506
       O    16.05980    3.35237   14.32784
      H1    15.26383    3.04934   14.76670
       H    15.29094    0.30566   15.17693
       O    14.51293    0.74171   14.88559
      H1    14.08560    0.12963   14.28103
       H    18.96248   -4.30497   14.42143
       O    18.04002   -4.59625   14.27230
      H1    17.64096   -3.82052   13.86163
       H    15.67132    2.38488   18.37938
       O    16.38820    2.23156   18.99893
      H1    17.20839    2.26051   18.53428
       H    16.46993    2.27735   11.15644
       O    16.52731    1.73148   11.98935
      H1    16.89389    0.87362   11.67370
       H    19.61965    2.67176   18.48304
       O    19.13768    1.92502   18.08578
      H1    19.14931    1.19975   18.73797
       H    14.23522    1.85607   16.31695
       O    13.93550    2.47739   16.96480
      H1    13.40426    3.06221   16.44380
       H    13.73022   -3.56466   14.08994
       O    13.98715   -3.46252   13.16904
      H1    14.87945   -3.10363   13.16175
       H    19.12003    1.60460   16.26422
       O    18.74624    1.42766   15.39489
      H1    18.08380    2.11204   15.27167

