39
frame 0 | Written by MDAnalysis XYZWriter (release 2.4.3)
       H     9.30681   12.32942    8.13736
       O     9.89117   13.01825    7.80515
      H1     9.95867   13.03024    6.81543
       H    12.90398   15.63123    7.15531
       O    12.93807   14.73045    7.54261
      H1    13.71150   14.76483    8.18959
       H     8.56749   17.08693   11.34767
       O     8.75400   16.59750   10.46352
      H1     9.64419   16.27344   10.57528
       H     9.45622   18.15354    9.11063
       O     9.41602   18.50412    8.17808
      H1     9.64828   19.47238    8.34042
       H    15.04818   13.85690    9.60159
       O    15.01920   14.78313    9.31847
      H1    15.65799   15.34594    9.84779
       H    12.04278   17.14270    6.34735
       O    12.98964   17.20164    6.18142
      H1    13.12961   18.00655    5.66457
       H     8.38108   15.25900    9.19036
       O     7.95570   14.68988    8.52963
      H1     8.64126   14.03091    8.26600
       H    13.90467   12.97137    5.02602
       O    13.18211   13.62058    5.14572
      H1    13.19594   13.96020    6.10305
       H    13.96599   17.76444   11.25527
       O    14.06754   17.93383   10.31674
      H1    14.64242   17.23704   10.02306
       H    13.21248   14.88758   12.72622
       O    13.11836   13.93267   12.87918
      H1    13.30525   13.54482   11.99940
       H    11.05157   12.64985    8.88875
       O    11.71565   12.29527    9.53714
      H1    11.32696   12.27662   10.42265
       H    11.61574   15.10506    9.26049
       O    11.50032   15.75235   10.00868
      H1    12.32493   16.25855    9.84400
       H    13.53083   12.25110    9.92698
       O    14.38048   12.27768   10.45126
      H1    14.42765   11.51824   11.05374

