39
frame 6 | Written by MDAnalysis XYZWriter (release 2.4.3)
       H    14.41690  -12.84245    3.62497
       O    13.66480  -12.74369    3.06553
      H1    13.00526  -13.43856    3.30069
       H    16.97648  -15.15542    0.55106
       O    17.38741  -14.33869    0.27570
      H1    17.23559  -14.24369   -0.68724
       H    11.37096  -14.13836    2.52609
       O    11.61614  -14.37131    3.44452
      H1    11.48438  -15.30452    3.49113
       H    14.68752  -12.65352    1.50073
       O    15.07321  -12.93223    0.67752
      H1    15.95969  -13.31908    0.76408
       H    15.67794  -12.08149    5.29435
       O    15.94859  -12.11914    4.36934
      H1    16.85597  -11.85122    4.13765
       H    15.27528  -18.65227   -1.15254
       O    15.74423  -17.83065   -1.26328
      H1    15.79840  -17.44125   -0.35777
       H    13.67644  -13.68174   -0.18435
       O    12.82069  -13.83193   -0.59086
      H1    12.45762  -14.56998   -0.11148
       H    15.99329  -15.83339    4.39476
       O    15.70493  -15.52097    3.50481
      H1    15.97880  -14.53469    3.52530
       H    19.35032  -18.85082    5.68553
       O    18.70942  -18.35698    5.16201
      H1    19.07490  -18.51228    4.26991
       H    14.71667  -18.19368    4.68342
       O    14.59491  -18.87559    5.38318
      H1    14.20932  -18.38438    6.14162
       H    17.17427  -17.16632    1.27311
       O    16.23258  -16.79133    1.31801
      H1    16.13035  -16.37570    2.16167
       H    17.19007  -16.08723    6.62110
       O    17.54560  -15.96786    5.75308
      H1    18.01367  -16.79940    5.67391
       H    13.54480  -17.90272    2.96163
       O    14.32590  -18.30764    2.72889
      H1    14.85038  -17.73559    2.12075

