39
frame 6 | Written by MDAnalysis XYZWriter (release 2.4.3)
       H   -16.28728   -4.83127   -1.59739
       O   -16.95673   -4.11556   -1.72589
      H1   -17.29746   -4.28679   -2.56764
       H   -16.76768   -6.89845   -1.19030
       O   -15.83097   -6.63551   -1.26069
      H1   -15.61022   -6.87303   -2.21467
       H   -17.08836   -4.22200   -7.03898
       O   -17.15285   -4.62919   -6.12554
      H1   -17.96587   -4.15518   -5.82246
       H   -18.00588   -4.72900   -0.32459
       O   -18.52677   -5.10611    0.36167
      H1   -19.15103   -4.37504    0.55588
       H   -14.81535   -4.96076   -4.39016
       O   -15.23217   -4.12049   -4.39237
      H1   -16.00933   -4.24591   -4.99769
       H   -13.36609   -2.94742   -1.52971
       O   -12.50346   -3.13348   -1.86329
      H1   -11.97368   -3.08991   -1.09167
       H   -16.17474   -2.27233   -3.51203
       O   -16.01667   -1.39741   -3.83916
      H1   -15.19613   -1.33130   -4.29818
       H   -18.42289   -8.44582   -1.16608
       O   -18.81544   -7.52756   -1.05742
      H1   -19.01097   -7.41756   -0.10675
       H   -19.93087   -4.65581   -4.28337
       O   -19.17833   -4.09775   -4.39199
      H1   -19.43483   -3.19274   -4.69922
       H   -18.47490   -1.67332   -6.42281
       O   -18.56136   -1.69147   -5.49077
      H1   -17.67968   -1.63006   -5.09955
       H   -19.46735   -0.57193   -1.77423
       O   -19.59384   -1.13158   -1.00731
      H1   -18.91118   -0.88199   -0.32303
       H   -14.41002   -7.49854   -4.00648
       O   -14.24019   -6.57156   -3.61390
      H1   -13.31237   -6.20970   -3.70453
       H   -15.85741   -2.65488   -1.21955
       O   -15.07367   -2.30836   -0.83285
      H1   -15.00647   -1.40266   -1.12143

