39
frame 5 | Written by MDAnalysis XYZWriter (release 2.4.3)
       H    11.84530  -17.15133   12.44810
       O    12.35911  -17.45588   11.67251
      H1    11.71311  -17.47899   10.98056
       H    15.02676  -18.50695   15.17850
       O    14.23500  -17.99077   15.08562
      H1    13.75557  -18.45155   14.40445
       H    16.73477  -16.60552   13.20370
       O    17.05614  -16.94109   12.34315
      H1    17.97777  -17.21072   12.51385
       H    16.24401  -18.73195   12.20808
       O    15.90610  -19.62429   12.31144
      H1    14.97703  -19.51999   12.70598
       H    16.81990  -18.46857    9.28478
       O    17.00579  -19.33411    9.61492
      H1    16.15565  -19.63672    9.98025
       H    13.66269  -14.99556    8.73160
       O    13.75672  -15.26636    7.82334
      H1    14.60691  -14.97484    7.64444
       H    18.82283  -18.91301    9.42070
       O    19.76126  -18.67611    9.68125
      H1    19.76443  -18.67471   10.69326
       H    14.19205  -17.11535    7.97575
       O    14.50180  -18.05823    7.92619
      H1    14.41580  -18.45097    8.81003
       H    13.52536  -16.07947   11.18757
       O    13.68237  -15.17298   10.97959
      H1    13.71472  -14.74073   11.89218
       H    17.85916  -14.68219   10.19580
       O    17.40579  -15.51474   10.05746
      H1    17.33883  -15.82778   10.99821
       H    12.94124  -18.63257    4.25896
       O    13.07435  -19.28657    4.99720
      H1    13.36806  -18.84695    5.81357
       H    18.18516  -17.03998    6.67329
       O    19.03910  -17.18117    6.21144
      H1    19.10773  -18.13576    6.10561
       H    16.74159  -16.50517    8.54999
       O    16.96482  -17.21351    7.86713
      H1    16.07856  -17.56823    7.71941

