39
frame 0 | Written by MDAnalysis XYZWriter (release 2.4.3)
       H    17.36499   -1.50474   11.88717
       O    17.28384   -2.02809   12.68453
      H1    16.36536   -2.01196   12.91221
       H    18.27654    5.28942   11.16520
       O    17.69751    5.50082   11.85878
      H1    17.36377    4.71309   12.35427
       H    16.77435   -2.90800   15.91399
       O    16.27104   -2.19564   15.55794
      H1    15.34859   -2.40826   15.77638
       H    15.54599    0.40677   17.43629
       O    16.20891    0.47986   16.71355
      H1    16.20479   -0.38238   16.25201
       H    16.00738    2.29098   12.26053
       O    15.70659    2.91233   13.00054
      H1    15.25219    2.41022   13.64892
       H    18.29672   -0.75983    9.67060
       O    18.61171   -0.74531   10.55278
      H1    19.40970   -0.20264   10.45604
       H    16.31303    1.97670   10.17425
       O    16.29622    1.38536   10.90608
      H1    17.18484    0.95013   10.83185
       H    17.89327   -0.50266   19.55367
       O    18.78029   -0.15643   19.74005
      H1    19.15284    0.30490   19.01193
       H    15.40998    0.93835   15.21335
       O    14.61548    1.37465   14.80575
      H1    14.02042    0.68952   14.47026
       H    19.39963   -0.56872   14.34965
       O    19.43985   -1.47881   14.11506
      H1    18.49161   -1.69315   13.74093
       H    18.96699    4.06879   15.69031
       O    19.77006    4.62375   15.98317
      H1    19.49029    5.50032   16.31640
       H    16.70259    3.25898   14.26105
       O    17.30568    3.41025   15.01426
      H1    16.65949    3.58984   15.70517
       H    20.31789    1.22610   14.40546
       O    19.59927    1.17485   13.74222
      H1    18.86030    1.70262   14.06964

