39
frame 5 | Written by MDAnalysis XYZWriter (release 2.4.3)
       H    17.98858   15.28356   -5.46090
       O    17.25633   15.87719   -5.59938
      H1    16.41159   15.44196   -5.83498
       H    18.78098   17.24663   -8.13222
       O    17.85314   17.35053   -7.85698
      H1    17.79337   16.81749   -7.06771
       H    17.80283   15.93550  -13.17124
       O    17.04138   16.21876  -12.69655
      H1    17.05723   15.63838  -11.93331
       H    16.88899   16.35818  -14.91469
       O    16.79010   16.87061  -15.76414
      H1    15.85742   16.68246  -15.91269
       H    12.73982   15.45783   -9.20685
       O    13.03316   15.91904  -10.00321
      H1    12.73767   15.23423  -10.58130
       H    16.43987   18.10898  -12.07417
       O    16.26665   18.94653  -11.63068
      H1    15.43575   18.80706  -11.20315
       H    14.89253   19.06683  -13.07984
       O    14.78910   19.15292  -14.10277
      H1    15.67296   19.54087  -14.35073
       H    16.79264   19.73067   -9.96765
       O    17.35371   19.93682   -9.21487
      H1    17.81294   19.12139   -8.90662
       H    17.01977   18.67804  -14.80243
       O    17.47544   19.49653  -15.02376
      H1    17.53112   20.10517  -14.25659
       H    15.13029   15.80149  -10.17998
       O    16.06077   15.43143  -10.25819
      H1    16.30684   15.63157   -9.35278
       H    19.70365   16.26171  -11.69956
       O    19.65773   15.65879  -10.95276
      H1    19.91792   16.11117  -10.14035
       H    13.74310   19.89908   -5.09727
       O    13.99566   19.00773   -5.41848
      H1    13.24491   18.53747   -5.76714
       H    15.15226   18.01979   -4.65987
       O    15.65792   17.41997   -4.09578
      H1    16.21501   16.91581   -4.68356

