39
frame 0 | Written by MDAnalysis XYZWriter (release 2.4.3)
       H    -6.21436  -11.36417  -11.60552
       O    -6.13655  -11.10326  -12.52338
      H1    -5.26809  -10.66824  -12.49483
       H    -9.80078  -10.46626   -9.68108
       O    -9.10853  -10.68112   -9.06155
      H1    -9.51107  -11.17330   -8.27638
       H    -4.16926   -7.60624  -10.79920
       O    -4.54713   -8.37137  -10.40180
      H1    -5.51260   -8.22264  -10.55661
       H    -6.88614  -13.57278  -14.79239
       O    -7.49040  -13.11574  -14.20429
      H1    -6.92765  -12.62584  -13.57768
       H    -7.37891   -9.44734  -11.88261
       O    -7.98030   -8.71404  -12.06353
      H1    -7.47074   -7.95154  -12.40702
       H    -7.88193   -8.02076  -10.42423
       O    -7.45833   -7.79679   -9.57027
      H1    -7.54046   -6.85433   -9.41398
       H    -4.17170   -8.41535  -14.11026
       O    -3.95214   -9.37003  -14.06382
      H1    -2.97869   -9.31571  -13.87163
       H    -3.44018   -9.87125  -10.87033
       O    -3.21403  -10.81450  -11.15523
      H1    -3.42092  -11.39983  -10.35466
       H    -4.64969   -6.43767  -15.34713
       O    -4.74069   -6.91537  -14.48767
      H1    -5.68367   -6.89654  -14.34628
       H    -7.53685   -5.53894  -12.59076
       O    -7.38932   -6.21038  -13.29618
      H1    -8.21426   -6.24398  -13.77370
       H    -7.43104   -9.10098   -7.15558
       O    -7.06069   -9.97233   -7.24330
      H1    -7.64375  -10.38534   -7.89406
       H    -7.32232  -13.01399   -9.83426
       O    -7.24414  -12.13615  -10.16105
      H1    -7.99556  -11.63186   -9.78944
       H   -10.88548   -9.92870  -13.46711
       O   -10.40507   -9.19082  -13.88144
      H1    -9.61824   -9.06891  -13.26755

