39
frame 5 | Written by MDAnalysis XYZWriter (release 2.4.3)
       H     1.52774   -7.35410   14.24193
       O     2.05648   -6.87160   14.86786
      H1     2.99378   -6.91542   14.55610
       H    -0.08544   -8.54980   12.43223
       O     0.55362   -7.88178   12.67592
      H1     1.33824   -8.20358   12.15233
       H    -1.73025   -5.60820    8.86401
       O    -1.24859   -6.20579    9.53927
      H1    -1.47105   -5.70339   10.28306
       H    -2.13272   -9.36832   12.83215
       O    -1.42445   -9.79744   12.33303
      H1    -1.94365   -9.84279   11.45241
       H    -2.34268   -5.62594   12.48871
       O    -1.47615   -5.25302   12.25375
      H1    -1.21821   -4.76867   13.09341
       H    -1.71152   -5.62357   15.58405
       O    -1.75177   -6.52380   15.20258
      H1    -1.50900   -6.52282   14.31244
       H     1.13799  -10.28735    9.70247
       O     0.30155  -10.58315    9.46796
      H1     0.39757  -11.26753    8.78555
       H    -0.92150  -11.11615   13.47091
       O    -0.65893  -11.92036   13.96043
      H1    -0.87467  -11.64469   14.88930
       H     3.45266   -5.55857   10.20587
       O     2.66489   -6.13793   10.06590
      H1     2.11702   -5.73874   10.70886
       H     3.24154   -9.45555   10.81808
       O     2.35198   -8.99182   10.75942
      H1     2.50524   -8.18863   10.23066
       H     1.61392   -4.20433   13.05260
       O     1.95147   -4.31485   13.96601
      H1     1.98529   -5.30305   14.08145
       H     0.06992   -4.42702   11.46811
       O     0.93248   -4.04802   11.35236
      H1     0.75286   -3.11714   11.08905
       H     2.41856   -7.69956   16.44432
       O     2.49811   -8.39396   17.12221
      H1     2.68452   -7.83906   17.92745

