39
frame 5 | Written by MDAnalysis XYZWriter (release 2.4.3)
       H     3.31077   13.09949   15.66426
       O     3.83988   12.74542   16.36396
      H1     4.60253   12.40018   15.88454
       H     4.02713   14.16506   17.46286
       O     3.84475   15.02239   17.80731
      H1     4.67290   15.38167   18.16099
       H     2.01745   15.38766   17.71196
       O     1.12874   15.69484   17.63049
      H1     1.03856   16.35737   16.95600
       H    -0.32833   12.86775   18.17639
       O    -0.88110   12.31821   17.56616
      H1    -1.72127   12.39283   18.01472
       H    -0.49875   16.91786   15.03623
       O     0.21724   17.26409   15.60254
      H1     0.07968   18.19044   15.39903
       H    -0.53389   13.34561   15.88768
       O    -0.36500   13.54451   14.96441
      H1    -0.72570   14.45589   14.81692
       H     3.34674   17.58491   15.81647
       O     3.90828   17.78744   16.60139
      H1     3.53187   17.13854   17.20384
       H    -0.79422   17.60787   19.20770
       O    -1.03097   16.96133   18.55334
      H1    -0.27003   16.40618   18.31993
       H    -3.40358   18.80701   19.97261
       O    -3.63833   17.94389   19.54661
      H1    -2.79428   17.67817   19.11669
       H    -3.28811   17.68144   15.84433
       O    -2.99027   16.87980   16.30590
      H1    -2.32097   17.13504   16.96895
       H    -2.22077   12.71412   15.51616
       O    -2.83598   12.03051   15.31648
      H1    -3.44413   12.04696   16.06418
       H    -2.21366   15.88971   14.94571
       O    -1.74478   15.87531   14.15558
      H1    -2.23580   16.41663   13.53734
       H     2.18327   14.96961   14.30257
       O     2.34204   14.06608   14.43993
      H1     1.48820   13.69649   14.70043

