39
frame 5 | Written by MDAnalysis XYZWriter (release 2.4.3)
       H     7.26245  -17.88234   14.07970
       O     7.29683  -16.89125   14.16268
      H1     6.54724  -16.56648   13.63919
       H     7.37758  -20.12247   14.87721
       O     6.87308  -19.45592   14.43281
      H1     6.29630  -19.09010   15.11446
       H     2.53926  -20.11453   13.95280
       O     2.32123  -19.15560   14.14895
      H1     2.87831  -18.90117   14.84686
       H     4.15203  -19.96158    8.71397
       O     4.35637  -19.20805    9.32670
      H1     5.30298  -19.35908    9.53211
       H     7.80085  -17.68190   11.25414
       O     8.05069  -16.77821   11.36432
      H1     8.31139  -16.60500   12.26659
       H     4.47471  -19.79935   16.01709
       O     4.44521  -18.84073   16.08364
      H1     4.80780  -18.63974   16.98352
       H     7.16610  -15.46808   15.51852
       O     7.57463  -14.67638   15.88753
      H1     6.82481  -14.08964   16.05331
       H    10.09445  -17.25773    9.01449
       O    10.00562  -17.75499    9.83158
      H1     9.35538  -17.34522   10.36448
       H     2.86095  -18.55935   12.35997
       O     3.46288  -18.10513   11.82358
      H1     3.30597  -18.48256   10.96655
       H     3.61707  -15.40049   16.02718
       O     4.27809  -14.84132   15.60105
      H1     4.32567  -15.05934   14.64587
       H     6.31322  -19.22054   12.76188
       O     5.90924  -19.23630   11.87218
      H1     5.03161  -18.84709   11.92125
       H     5.31601  -15.17591   12.45072
       O     5.01474  -15.79063   13.06907
      H1     4.37193  -16.41278   12.74150
       H    10.51771  -19.88135   13.68445
       O    10.01192  -19.38692   13.01652
      H1    10.27034  -18.47927   13.07740

