39
frame 7 | Written by MDAnalysis XYZWriter (release 2.4.3)
       H    -2.82045  -15.05003  -10.42509
       O    -3.58232  -15.51448  -10.72997
      H1    -4.38128  -14.94923  -10.61356
       H     2.60508  -16.52944   -9.71590
       O     2.72687  -17.39688  -10.10653
      H1     2.46505  -17.33418  -11.11063
       H    -3.86353  -19.40242  -14.57917
       O    -4.76819  -19.05640  -14.62986
      H1    -5.14280  -19.00780  -13.71811
       H     0.22219  -18.03371  -15.56083
       O     1.07603  -18.41949  -15.49779
      H1     1.00409  -19.09777  -14.88043
       H    -3.70032  -16.87058  -13.90687
       O    -4.15566  -16.00964  -13.66702
      H1    -3.87746  -15.75996  -12.76469
       H    -0.84692  -17.14358  -12.79007
       O    -1.39269  -17.71171  -12.19660
      H1    -0.84824  -17.73622  -11.34953
       H     2.40260  -18.24032  -13.28959
       O     2.51167  -17.46343  -12.77278
      H1     3.11139  -16.93600  -13.30931
       H     0.98734  -16.56270  -13.23089
       O     0.21799  -16.11052  -13.66329
      H1     0.08691  -15.23425  -13.25809
       H    -2.14488  -15.78264  -16.30449
       O    -2.63939  -15.07924  -15.81170
      H1    -3.23031  -15.46776  -15.11941
       H     0.79445  -17.71879   -9.58516
       O    -0.08636  -17.97341   -9.83031
      H1    -0.12051  -18.94081   -9.96521
       H    -1.59476  -18.29268  -15.78585
       O    -1.68907  -17.52856  -16.38052
      H1    -2.34472  -17.83734  -17.01518
       H    -4.16605  -17.35744  -10.67796
       O    -4.71085  -18.14655  -10.53735
      H1    -5.28052  -17.93157   -9.79364
       H    -3.54490  -19.29707   -9.26316
       O    -3.15729  -19.97794   -8.70757
      H1    -3.44906  -19.91923   -7.79628

