39
frame 0 | Written by MDAnalysis XYZWriter (release 2.4.3)
       H    -9.80908  -15.11419  -16.89010
       O   -10.47930  -14.44265  -16.64703
      H1   -10.06904  -13.89852  -15.92131
       H   -10.29707  -14.82553  -12.53074
       O   -10.12171  -14.49789  -11.60649
      H1    -9.85828  -13.56558  -11.75780
       H   -12.70572  -11.35351  -13.17200
       O   -11.75836  -11.33279  -12.94533
      H1   -11.27648  -11.76631  -13.62665
       H    -9.80078  -10.46626   -9.68108
       O    -9.10853  -10.68112   -9.06155
      H1    -9.51107  -11.17330   -8.27638
       H   -11.78535  -16.07927  -13.83678
       O   -10.85621  -15.76924  -14.04441
      H1   -10.91510  -15.38874  -14.92908
       H    -9.08934  -12.58334  -14.48933
       O    -9.99248  -12.45181  -14.81109
      H1    -9.91149  -11.83048  -15.54537
       H    -6.88614  -13.57278  -14.79239
       O    -7.49040  -13.11574  -14.20429
      H1    -6.92765  -12.62584  -13.57768
       H   -11.74080  -11.88384  -11.29198
       O   -11.58319  -12.04929  -10.32017
      H1   -11.40373  -12.99179  -10.17499
       H    -6.85290  -15.15149  -10.59567
       O    -7.54712  -15.30476   -9.93449
      H1    -8.38281  -15.08252  -10.41519
       H    -9.67610  -17.65605  -12.69375
       O    -8.90785  -18.14147  -13.05810
      H1    -8.39430  -17.49851  -13.56723
       H    -7.32232  -13.01399   -9.83426
       O    -7.24414  -12.13615  -10.16105
      H1    -7.99556  -11.63186   -9.78944
       H   -11.95996  -14.99630   -8.40405
       O   -12.80221  -14.52483   -8.48239
      H1   -13.13548  -14.37562   -7.62076
       H   -10.88548   -9.92870  -13.46711
       O   -10.40507   -9.19082  -13.88144
      H1    -9.61824   -9.06891  -13.26755

