39
frame 6 | Written by MDAnalysis XYZWriter (release 2.4.3)
       H     9.02064  -13.79496   13.55650
       O     9.32653  -14.57076   14.00757
      H1     8.90539  -14.58832   14.89668
       H     5.41214  -16.09522   19.51302
       O     6.22260  -15.99263   19.09126
      H1     6.20676  -15.15496   18.64933
       H     6.70069  -11.63744   18.87088
       O     6.47737  -11.17653   18.03739
      H1     7.19456  -10.59155   17.80012
       H     7.95779  -15.98405   16.14482
       O     8.44849  -15.20508   16.41348
      H1     7.86320  -14.52549   16.79918
       H     2.95553  -10.04840   16.51486
       O     3.25178  -10.93203   16.22777
      H1     3.97517  -11.19463   16.75731
       H     7.52562  -11.59568   13.63025
       O     7.87762  -12.39373   13.12914
      H1     7.15302  -13.02916   13.12434
       H     6.12432  -17.21020   17.96078
       O     5.90099  -18.05500   17.45489
      H1     5.46651  -18.62570   18.09500
       H     2.50003  -13.87897   16.87380
       O     1.77505  -13.26665   16.60332
      H1     2.21670  -12.39847   16.42378
       H     7.65800   -8.59203   16.83161
       O     8.06426   -9.41143   16.60985
      H1     8.99966   -9.37909   16.91951
       H     6.15754  -12.81024   17.42617
       O     6.15948  -13.74282   17.16944
      H1     5.23404  -14.02088   17.01884
       H     7.26864   -9.64756   15.05214
       O     6.95827   -9.94396   14.15893
      H1     6.01756   -9.93783   14.20187
       H     3.20630  -15.74486   17.08302
       O     3.88630  -15.16361   16.75764
      H1     4.01806  -15.38152   15.82190
       H     4.79777  -15.09478   14.03543
       O     4.64230  -16.01517   14.19971
      H1     4.06176  -16.24568   13.44107

