39
frame 6 | Written by MDAnalysis XYZWriter (release 2.4.3)
       H     3.35821   16.85955  -14.90720
       O     3.15563   17.67554  -15.35892
      H1     3.18237   17.49921  -16.29276
       H     0.79557   16.02098  -13.42455
       O     1.17774   15.22894  -13.01103
      H1     1.32924   15.51021  -12.08364
       H     1.39056   12.00598  -12.83541
       O     1.25248   11.83216  -11.87584
      H1     0.32037   11.60001  -11.80150
       H     2.57104   15.11534  -13.75061
       O     3.42729   15.25431  -14.14452
      H1     3.52890   14.47368  -14.75289
       H     6.37908   16.52821  -15.30843
       O     6.21502   15.82059  -15.88786
      H1     5.38956   15.85602  -16.31722
       H     7.48604   13.23786  -14.71376
       O     7.71022   14.19184  -14.54573
      H1     7.07594   14.72177  -15.05620
       H     3.66676   15.11416  -18.21161
       O     4.13189   15.79954  -17.65516
      H1     3.93120   16.68603  -18.07026
       H     1.47904   17.82337  -14.78345
       O     0.59645   17.58406  -14.38721
      H1     0.51259   18.18798  -13.69037
       H     6.42462   13.43170  -17.01856
       O     6.52327   13.12745  -17.90623
      H1     7.36385   12.63886  -17.88964
       H     3.82471   12.44741  -16.71392
       O     3.65772   12.11837  -15.83648
      H1     3.19518   11.25670  -15.96162
       H     1.51852   12.15030  -15.31635
       O     0.89085   12.43922  -14.67196
      H1     0.21328   11.75033  -14.63048
       H     4.86927   11.17439  -14.96710
       O     5.08862   10.34358  -14.39739
      H1     5.88711   10.56481  -13.98341
       H     2.08596   13.30743  -18.31150
       O     3.06306   13.15538  -18.42683
      H1     3.14072   12.35991  -18.99163

