39
frame 7 | Written by MDAnalysis XYZWriter (release 2.4.3)
       H     8.65229   16.44477    3.32088
       O     8.62650   17.38902    3.62644
      H1     8.47659   17.40523    4.58649
       H     7.79844   15.83642    8.30931
       O     7.44446   14.96581    8.04328
      H1     6.80510   15.24916    7.37947
       H     3.70357   14.57926    2.65020
       O     3.28621   15.16589    2.04921
      H1     3.37537   16.08935    2.42143
       H     8.62504   14.74467    6.86903
       O     9.14345   14.68130    6.01583
      H1     8.48270   14.43269    5.35418
       H     6.55054   14.57025    3.39820
       O     7.15463   14.94481    4.01236
      H1     6.59117   15.08687    4.72490
       H     4.96989   10.83766    5.90332
       O     5.16720   11.78706    6.18335
      H1     5.92321   11.79198    6.74423
       H     6.19289   19.44986    3.12500
       O     6.99766   19.27500    2.60261
      H1     7.54747   18.70312    3.16567
       H    11.30257   16.99651    6.95136
       O    11.06474   16.56674    6.14414
      H1    10.27773   16.08100    6.29683
       H     4.49238   17.90943    3.45448
       O     3.61525   17.56206    3.14112
      H1     3.39579   18.09867    2.40649
       H     5.12329   13.97500    5.91718
       O     5.30255   14.84430    6.31781
      H1     4.45677   15.26835    6.54430
       H    10.02128   15.49024    1.35797
       O     9.10912   15.33360    1.69896
      H1     9.06275   14.36432    1.91375
       H     6.86615   19.64316    5.52996
       O     7.59157   19.08626    5.69968
      H1     8.35735   19.70164    5.52602
       H     5.23539   12.44311    2.64902
       O     4.77910   13.17346    3.09782
      H1     4.05256   12.79781    3.58850

