39
frame 6 | Written by MDAnalysis XYZWriter (release 2.4.3)
       H    -9.70573   19.99173    1.27178
       O    -9.91751   19.28538    0.66758
      H1   -10.76135   19.00070    1.04315
       H    -9.55281   16.40567    7.49384
       O    -9.60028   17.39475    7.54050
      H1    -9.41739   17.52269    6.61965
       H   -12.91488   19.51153    3.74906
       O   -13.64499   19.87912    4.29885
      H1   -14.25262   19.10306    4.13284
       H    -9.32103   17.40240    4.30377
       O    -8.81293   17.90344    4.91855
      H1    -7.94093   17.81275    4.60993
       H   -12.60194   18.39938    1.94376
       O   -11.85549   18.50560    2.54461
      H1   -11.74746   17.64631    3.02014
       H   -14.41706   16.39893    6.19233
       O   -14.81904   17.13528    6.64450
      H1   -15.34335   16.69130    7.31097
       H   -10.30266   15.30712    3.85581
       O   -10.79234   16.11920    4.06101
      H1   -11.69643   15.80723    4.23764
       H   -11.16995   15.53977    9.29487
       O   -11.71416   16.00503    8.64995
      H1   -11.02059   16.63404    8.22183
       H    -9.92239   13.28089    3.50172
       O    -9.20763   13.70766    3.03931
      H1    -9.60020   13.93756    2.21155
       H   -11.78430   12.08908    5.07831
       O   -11.53135   12.97819    5.26566
      H1   -11.06281   12.84768    6.16503
       H    -7.98228   16.63524   -0.07092
       O    -8.65675   16.78409    0.61247
      H1    -9.04580   17.65820    0.46824
       H   -12.78475   14.25500    5.14308
       O   -13.42519   14.99400    5.08429
      H1   -14.22989   14.40640    4.97748
       H    -9.92141   14.14509   -0.10456
       O   -10.46838   14.68502    0.55181
      H1    -9.88701   15.45518    0.84826

