39
frame 6 | Written by MDAnalysis XYZWriter (release 2.4.3)
       H     3.36774   -6.16790   -6.74181
       O     3.38319   -5.32090   -7.23320
      H1     2.47840   -5.33597   -7.58585
       H    -1.01579   -3.41009   -4.23365
       O    -1.64195   -2.67255   -4.15751
      H1    -1.30482   -2.12409   -3.46396
       H     0.39923   -7.76830   -3.16755
       O     0.85497   -6.95086   -3.40464
      H1     1.69495   -7.08225   -3.84659
       H    -2.00413   -5.23044   -5.82638
       O    -2.85566   -4.92330   -6.18602
      H1    -2.51425   -4.31614   -6.80478
       H    -0.03119   -6.00968   -6.21108
       O    -0.30264   -5.43357   -5.48341
      H1     0.01821   -5.92109   -4.70241
       H     0.07709   -4.46616  -10.81129
       O    -0.07271   -3.62076  -10.37323
      H1    -0.68126   -3.79459   -9.69803
       H     0.30440   -3.70873   -6.07903
       O     0.57917   -2.82104   -6.28319
      H1     1.10911   -2.94504   -7.16575
       H     3.43943   -3.45288   -4.36489
       O     2.46994   -3.51967   -4.11968
      H1     2.01522   -3.14834   -4.91732
       H    -1.08067   -2.93668   -7.18218
       O    -1.73133   -3.01560   -7.90508
      H1    -2.56115   -2.62920   -7.54754
       H     3.93036   -7.74444   -5.22710
       O     3.33396   -7.00462   -5.03445
      H1     2.54388   -7.35035   -5.42832
       H     2.22764   -8.53884   -6.95871
       O     1.49589   -8.46894   -6.35446
      H1     1.49299   -9.29664   -5.81652
       H    -4.72186   -7.54845   -6.65464
       O    -3.81795   -7.49382   -6.99062
      H1    -3.42765   -6.67975   -6.60809
       H     0.51757   -7.63748   -7.78069
       O     0.15390   -6.73105   -8.01471
      H1    -0.54225   -6.85176   -8.71138

