39
frame 6 | Written by MDAnalysis XYZWriter (release 2.4.3)
       H   -16.79229  -17.51740   15.76122
       O   -16.26970  -17.65552   14.90869
      H1   -16.71295  -18.46333   14.53097
       H   -10.01020  -18.83260   18.31873
       O   -10.45814  -19.63072   18.12216
      H1   -10.03136  -20.04709   17.31486
       H   -11.37299  -13.86530   13.20389
       O   -11.74543  -14.44415   12.55842
      H1   -12.69126  -14.32402   12.51386
       H   -15.12542  -18.84549   11.10808
       O   -14.98830  -18.38021   11.91673
      H1   -14.08277  -18.04242   11.80846
       H   -13.09892  -18.73094   19.48571
       O   -13.70165  -18.27210   18.88251
      H1   -13.19618  -18.16717   18.05448
       H   -12.18853  -17.19125   10.70247
       O   -12.50196  -17.20233   11.62623
      H1   -12.16304  -16.39691   12.06851
       H    -8.46104  -16.34178   15.71181
       O    -9.08598  -17.09251   15.43970
      H1    -8.56643  -17.60929   14.87265
       H   -11.59035  -15.81968   14.01084
       O   -11.55368  -16.51655   14.61178
      H1   -10.69023  -16.52391   14.90847
       H    -9.79474  -17.05906   19.50613
       O    -9.44944  -17.26822   18.60803
      H1    -9.89765  -16.73013   17.92667
       H   -14.50660  -17.72134   15.72242
       O   -13.61829  -17.82166   16.08042
      H1   -12.99841  -17.27316   15.49376
       H   -10.44368  -17.57614    9.46805
       O   -11.17897  -16.95927    9.23890
      H1   -11.89589  -17.47964    8.85334
       H   -12.68651  -18.88528   14.65888
       O   -12.09585  -19.21956   13.96097
      H1   -12.02051  -18.45661   13.34955
       H   -17.10320  -15.73404   12.10629
       O   -16.10013  -15.84481   12.13517
      H1   -15.91394  -16.81085   12.04146

