39
frame 7 | Written by MDAnalysis XYZWriter (release 2.4.3)
       H     3.62646   -5.37751   -6.33359
       O     3.23838   -4.47882   -6.41579
      H1     3.22577   -4.45430   -7.37656
       H     3.56892   -4.82522  -10.93477
       O     3.07028   -5.22506  -11.69614
      H1     2.28615   -5.60182  -11.18664
       H     0.04892   -5.51427   -6.14110
       O    -0.13238   -4.81594   -5.48707
      H1     0.51512   -4.91443   -4.80064
       H     0.24933   -3.11564   -6.04601
       O     0.12792   -2.13138   -6.23365
      H1     0.85495   -1.91354   -6.88925
       H     0.92536   -6.97132  -10.94675
       O     0.95471   -6.22917  -10.33240
      H1     1.27201   -6.53962   -9.50034
       H     4.76086   -3.25499   -9.66582
       O     3.87003   -3.62894   -9.51536
      H1     3.26511   -2.93371   -9.20683
       H     7.03930   -5.24659   -8.49438
       O     6.25729   -5.32155   -7.95855
      H1     5.82920   -4.49441   -8.05699
       H     4.33402   -8.08960   -5.56998
       O     3.56817   -7.44567   -5.58015
      H1     2.96458   -7.86358   -6.24378
       H     4.82778   -3.26621   -5.72646
       O     5.13497   -2.32837   -5.70396
      H1     4.90677   -1.99732   -4.78560
       H     0.53515   -7.45892   -7.44483
       O     0.17612   -6.58932   -7.61244
      H1    -0.58835   -6.60870   -8.13634
       H     4.85529   -6.57108   -8.93820
       O     4.67756   -7.43092   -9.37193
      H1     5.59644   -7.77574   -9.49221
       H     6.53939   -5.59970   -6.10943
       O     6.79803   -5.73356   -5.22331
      H1     7.30236   -4.90071   -5.10336
       H     2.65014   -0.94292   -8.06501
       O     1.99712   -1.63894   -8.41154
      H1     1.79371   -1.28643   -9.32411

