39
frame 6 | Written by MDAnalysis XYZWriter (release 2.4.3)
       H    17.36090  -13.26182   -5.85357
       O    16.97363  -13.67990   -6.64015
      H1    16.98872  -12.92944   -7.25974
       H    17.83692  -16.64384   -8.15387
       O    18.53436  -16.09059   -8.53657
      H1    19.01259  -16.70634   -9.09666
       H    17.27969  -18.66540  -11.86216
       O    17.91935  -17.90152  -11.96960
      H1    17.39435  -17.10989  -11.97246
       H    18.14842   -9.12060   -8.02794
       O    18.01194  -10.03606   -7.69115
      H1    17.60686   -9.88426   -6.83703
       H    13.56730  -11.74903   -7.87965
       O    14.19166  -11.01785   -7.76822
      H1    15.04626  -11.35091   -8.19401
       H    18.32784  -15.82957  -13.44859
       O    17.43073  -15.52309  -13.62817
      H1    17.45389  -14.64751  -13.15298
       H    19.22424  -13.18395   -9.81374
       O    19.26630  -14.01589  -10.35378
      H1    18.97620  -14.75216   -9.80229
       H    18.83805   -7.24705   -9.48731
       O    18.15377   -7.91732   -9.46659
      H1    18.46869   -8.67946  -10.00376
       H    19.04264  -10.58785  -11.46304
       O    18.29194  -10.02932  -11.17554
      H1    17.48673  -10.38438  -11.62465
       H    19.30358  -11.31097   -8.23680
       O    19.88572  -12.00215   -8.52364
      H1    19.90736  -12.78150   -7.96151
       H    17.00183  -11.04778   -8.90908
       O    16.48182  -11.79489   -9.20561
      H1    16.31108  -11.69003  -10.10968
       H    18.14731  -13.26940  -11.62071
       O    17.77619  -13.05559  -12.47301
      H1    18.48281  -13.22325  -13.12966
       H    16.43328  -11.64395  -12.50213
       O    15.87511  -10.97346  -12.07979
      H1    15.53154  -10.41791  -12.81064

