39
frame 7 | Written by MDAnalysis XYZWriter (release 2.4.3)
       H    15.20912    1.97826  -18.19318
       O    15.87657    2.44755  -18.70863
      H1    15.98391    1.96805  -19.56025
       H    13.74893   -1.19501  -15.93270
       O    14.00668   -0.30693  -15.74248
      H1    15.01332   -0.43831  -15.69321
       H    13.36085    2.21963  -17.81284
       O    13.73954    1.96267  -16.96203
      H1    13.57873    0.99973  -16.84238
       H    17.53811   -0.76410  -14.35988
       O    16.78486   -0.16372  -14.56805
      H1    17.14652    0.34356  -15.30135
       H    13.02590   -1.85251  -18.23181
       O    12.75660   -1.71535  -19.15700
      H1    11.80750   -1.75886  -19.11994
       H    14.39500   -3.35595  -15.45494
       O    13.99869   -3.07375  -16.26435
      H1    14.67337   -3.49932  -16.86126
       H    16.66233   -5.04932  -17.59706
       O    16.05433   -4.30002  -17.73351
      H1    16.53619   -3.51189  -17.56278
       H    15.20345    4.16659  -18.42471
       O    15.25319    5.07814  -18.46712
      H1    15.64829    5.35554  -19.34411
       H    19.06191   -2.33513  -15.80862
       O    18.53522   -2.84216  -16.46730
      H1    18.32857   -2.14897  -17.13624
       H    17.66224   -0.06806  -18.41029
       O    17.74147   -1.02915  -18.60334
      H1    17.38400   -1.10418  -19.50524
       H    12.85760    1.00873  -20.18205
       O    12.20905    1.31423  -19.56093
      H1    12.24080    0.64421  -18.88157
       H    18.78626    1.25472  -17.29892
       O    17.83671    1.35230  -17.10201
      H1    17.47634    2.04325  -17.68515
       H    18.66877   -6.00816  -16.67989
       O    17.96222   -6.13449  -17.30937
      H1    18.50647   -6.55346  -18.04495

