39
frame 0 | Written by MDAnalysis XYZWriter (release 2.4.3)
       H   -14.40791   -8.98513    7.45707
       O   -14.94279   -9.15423    8.22591
      H1   -15.11174   -8.26861    8.54693
       H   -10.53733  -11.22140    9.50559
       O    -9.72928  -11.49899    9.14550
      H1    -9.84332  -11.04228    8.26695
       H   -12.84932  -11.12271    9.99125
       O   -12.12453  -11.59649   10.48050
      H1   -12.49642  -12.46410   10.72876
       H   -11.43433  -10.48885    4.97597
       O   -11.15141  -10.52585    4.03737
      H1   -10.52484  -11.29903    3.95996
       H   -10.25060  -11.65599    6.46066
       O   -10.18350  -10.73577    6.60018
      H1    -9.42275  -10.49193    6.01596
       H    -8.65744  -10.27107    4.23577
       O    -8.25058   -9.63215    4.85058
      H1    -8.86171   -8.92134    5.03193
       H   -14.76196  -11.67648   10.51070
       O   -14.89650  -11.61814    9.52383
      H1   -14.63943  -10.73919    9.23123
       H    -8.69308   -6.41231    5.50782
       O    -9.55400   -6.89771    5.51104
      H1    -9.71308   -7.21924    4.57457
       H   -12.08423   -9.13156    6.98206
       O   -12.72116   -9.38639    6.27501
      H1   -12.80844   -8.60970    5.76504
       H   -12.59471   -7.37818    3.80841
       O   -13.36138   -7.56528    4.36613
      H1   -14.00986   -8.08053    3.89831
       H   -16.88403  -11.09890    6.06714
       O   -16.02613  -11.45278    6.22442
      H1   -15.47995  -10.74326    6.66066
       H   -10.19734   -8.40087    8.30177
       O   -11.12658   -8.28695    8.37580
      H1   -11.24317   -7.49636    7.84701
       H   -11.00694   -5.92681    6.45847
       O   -11.43359   -5.47225    7.22352
      H1   -10.63758   -5.13321    7.67225

