39
frame 6 | Written by MDAnalysis XYZWriter (release 2.4.3)
       H     7.25681    8.42099  -16.06581
       O     8.06126    8.83917  -16.34749
      H1     7.99274    8.95659  -17.28847
       H     7.48604   13.23786  -14.71376
       O     7.71022   14.19184  -14.54573
      H1     7.07594   14.72177  -15.05620
       H     9.25108   16.03966  -16.02286
       O     8.88713   16.17677  -16.89009
      H1     7.93343   15.95806  -16.77224
       H    11.52829   14.59458  -17.68265
       O    10.71207   14.20768  -18.05510
      H1    10.07601   14.90248  -17.95020
       H     6.42462   13.43170  -17.01856
       O     6.52327   13.12745  -17.90623
      H1     7.36385   12.63886  -17.88964
       H     9.72141   12.65893  -17.29724
       O     9.05015   11.93178  -17.35378
      H1     8.79932   11.79866  -16.42026
       H     9.42740   10.51736  -18.58782
       O     9.45148    9.73701  -19.11512
      H1    10.39221    9.44431  -19.20993
       H    10.60095   11.63546  -13.58201
       O     9.75700   11.90677  -13.21296
      H1     9.39166   11.03937  -12.94729
       H     9.46855    7.76360  -15.10573
       O    10.10646    7.33078  -14.48792
      H1    10.56100    8.02472  -14.01135
       H     5.45934   11.51668  -18.29820
       O     4.88170   10.98011  -18.85054
      H1     5.44686   10.78683  -19.61116
       H     4.86927   11.17439  -14.96710
       O     5.08862   10.34358  -14.39739
      H1     5.88711   10.56481  -13.98341
       H    10.35018   10.46383  -16.59810
       O    11.02651    9.89170  -16.28886
      H1    11.36695   10.33535  -15.47495
       H     8.43079   11.46990  -14.43510
       O     7.90724   11.31350  -15.22748
      H1     7.96978   10.43183  -15.55731

