39
frame 7 | Written by MDAnalysis XYZWriter (release 2.4.3)
       H     2.89090   16.15994  -10.12361
       O     2.41323   16.00331  -10.91038
      H1     3.01274   15.40389  -11.40530
       H     8.85196   13.48399  -12.01382
       O     8.39274   13.90910  -12.72539
      H1     7.52918   13.41652  -12.73292
       H     6.56605   16.32485  -12.86649
       O     6.56106   16.53987  -13.77156
      H1     6.64794   17.50724  -13.78402
       H     2.28310   15.08851  -14.21469
       O     3.22876   15.33402  -14.03573
      H1     3.77700   14.73344  -14.57692
       H     7.49975   16.24239  -10.66153
       O     6.82474   15.79166  -11.16650
      H1     7.23992   15.10625  -11.67212
       H     5.37762   13.60235  -13.66921
       O     5.84724   13.01926  -13.04523
      H1     5.42547   13.27067  -12.16830
       H     3.70988   16.67272   -8.05339
       O     4.05095   15.92367   -8.59407
      H1     5.00855   15.68191   -8.27478
       H     5.29402   14.80608  -10.69613
       O     4.63559   14.12614  -10.82325
      H1     3.97802   14.28887  -10.16916
       H     7.24572   11.08390  -11.04716
       O     7.12021   10.76984  -11.93174
      H1     6.58438   11.51982  -12.25537
       H     1.72634   13.17754  -10.61371
       O     1.92071   13.40313   -9.69785
      H1     1.97405   14.38078   -9.75399
       H     6.81505   15.61531   -7.59010
       O     6.26300   14.87457   -7.91998
      H1     6.66650   14.57604   -8.78064
       H     5.83679   12.85442  -10.05219
       O     6.81989   12.68909   -9.97871
      H1     6.91136   12.43752   -9.07935
       H     2.85724   10.55965   -8.16620
       O     2.24653   10.83385   -8.88883
      H1     2.36801   11.79651   -8.87664

