39
frame 8 | Written by MDAnalysis XYZWriter (release 2.4.3)
       H    -9.09724  -12.72472  -18.15001
       O    -9.88009  -12.61837  -18.70388
      H1    -9.63030  -12.45470  -19.59590
       H    -7.39128  -16.52266  -15.25055
       O    -7.87943  -16.56458  -14.37927
      H1    -7.48338  -17.36434  -13.90617
       H    -4.69574  -11.83666  -15.02603
       O    -4.73446  -12.73680  -14.60099
      H1    -4.27222  -13.34571  -15.25601
       H    -2.28022  -11.51973  -17.99561
       O    -1.67212  -12.19055  -17.60152
      H1    -1.02189  -12.48375  -18.27347
       H    -5.31529  -16.94871  -16.40129
       O    -6.07032  -16.29902  -16.55040
      H1    -5.62708  -15.49835  -16.80384
       H    -8.72021  -13.31284  -14.76884
       O    -9.25639  -12.84337  -15.40297
      H1    -8.59629  -12.31608  -15.94530
       H    -2.68895  -13.31157  -16.91606
       O    -3.42194  -13.93313  -16.85058
      H1    -3.04793  -14.78333  -16.63302
       H    -4.07556   -9.97767  -19.00357
       O    -3.99187  -10.74423  -18.41372
      H1    -4.43484  -10.52473  -17.56929
       H    -5.31030   -9.96549  -15.16281
       O    -4.46472  -10.09549  -15.62301
      H1    -3.81830   -9.58595  -15.05500
       H    -2.16542  -17.24329  -16.95457
       O    -2.86869  -16.62758  -16.68733
      H1    -2.74550  -16.58356  -15.67264
       H    -7.58878  -15.67120  -19.30334
       O    -7.94500  -15.84321  -18.42441
      H1    -7.09881  -15.88273  -17.85063
       H    -5.83390  -14.00582  -18.92566
       O    -5.65592  -13.28932  -18.31056
      H1    -4.78955  -13.50323  -17.98102
       H    -6.63630  -12.44554  -17.15723
       O    -7.28782  -11.75335  -16.81730
      H1    -7.21478  -11.03803  -17.47948

