39
frame 7 | Written by MDAnalysis XYZWriter (release 2.4.3)
       H   -16.23299   12.56771   19.13993
       O   -16.00763   11.84674   18.56842
      H1   -15.52539   11.18171   19.09093
       H   -11.90982   13.81587   15.40987
       O   -12.29152   13.10345   14.89063
      H1   -11.52529   12.46948   14.71070
       H   -11.46125   15.90395   18.88152
       O   -12.04742   15.26670   18.39995
      H1   -12.73570   15.81359   17.98866
       H   -14.36035   11.70495   17.06049
       O   -13.93537   11.28380   16.29712
      H1   -13.28159   11.82969   15.85460
       H   -15.32274   14.32728   16.90660
       O   -15.48127   14.50095   15.93237
      H1   -15.80049   15.42898   15.94667
       H   -11.42582    9.83619   17.44009
       O   -12.28176    9.93674   17.82645
      H1   -12.76988   10.28203   17.07652
       H   -14.13347    9.68106   18.64188
       O   -14.46570    9.83287   19.55149
      H1   -15.11582    9.16648   19.67064
       H   -14.97735    9.95982   15.91702
       O   -15.80831    9.38505   15.92828
      H1   -15.51920    8.48365   15.82312
       H   -10.24171   15.59523   15.98088
       O   -10.59778   14.72067   16.25488
      H1   -11.07243   14.88072   17.09485
       H   -15.45409   16.38642   17.98500
       O   -15.07154   16.00179   18.79403
      H1   -15.20795   16.65870   19.54779
       H   -12.49415   11.90088   19.03064
       O   -13.10703   12.67701   19.01881
      H1   -12.54832   13.36266   18.63949
       H    -9.92282   10.25053   15.82637
       O    -9.91151    9.80279   16.67806
      H1    -9.44229   10.38732   17.29122
       H   -16.22645   14.75300   19.51735
       O   -16.85133   14.08961   19.75758
      H1   -17.65354   14.39592   19.27500

