39
frame 8 | Written by MDAnalysis XYZWriter (release 2.4.3)
       H    -0.15935   15.09236   18.84323
       O    -0.07395   15.55536   18.02090
      H1     0.85722   15.72060   17.90684
       H    -2.00130   16.44245   11.85022
       O    -1.73921   15.84725   11.15017
      H1    -2.50453   15.98106   10.54312
       H    -0.85239   14.36433   16.65450
       O    -1.27681   13.57717   16.18162
      H1    -1.84421   13.24608   16.88787
       H     0.65116   17.38254   13.61183
       O    -0.11870   17.89040   13.86814
      H1    -0.78161   17.19595   13.94777
       H    -1.39706   14.59767   14.61660
       O    -1.41116   15.25144   13.91856
      H1    -1.09311   14.73384   13.19149
       H     0.05364   15.42133   11.07272
       O     0.86589   15.03720   11.51046
      H1     0.67045   14.07380   11.68131
       H    -3.87985   17.42103   12.09757
       O    -3.07961   17.51589   12.67028
      H1    -2.97280   18.46392   12.77504
       H     1.05842   12.06851   12.24107
       O     0.29123   12.54586   11.90469
      H1     0.09388   12.29054   10.95055
       H    -3.14357   11.21100   15.04536
       O    -2.42073   10.57778   14.97915
      H1    -1.78597   10.85333   15.64208
       H    -2.63427   17.14454   16.98061
       O    -3.23351   17.23202   16.23905
      H1    -3.33727   16.34514   15.82927
       H    -4.29752   13.54876   14.71786
       O    -4.39238   12.58473   14.80584
      H1    -4.79780   12.43830   15.63546
       H     0.27819   10.39948   16.17331
       O    -0.37801   10.96084   16.65055
      H1    -0.47533   11.78974   16.21641
       H    -3.19059   15.16860   14.05779
       O    -4.02650   15.21810   14.58274
      H1    -4.62802   15.54860   13.94298

