39
frame 8 | Written by MDAnalysis XYZWriter (release 2.4.3)
       H    17.09654   16.21493    2.20288
       O    17.16917   16.29568    1.25324
      H1    17.16211   15.36000    1.04335
       H    16.52654   12.19648    4.54858
       O    16.91938   11.79404    3.77380
      H1    16.74470   10.81048    3.89792
       H    14.75989   15.78075    3.84693
       O    14.16725   15.04385    3.87680
      H1    14.65047   14.44726    4.43262
       H    17.70603   11.28351   -1.56977
       O    17.11661   10.69028   -2.10985
      H1    16.25238   10.66981   -1.63750
       H    16.76801   12.94730    2.13547
       O    16.83612   13.39250    1.28912
      H1    16.08826   13.20006    0.75211
       H    18.81433   10.24337    0.24837
       O    19.12633    9.40925    0.57422
      H1    18.52015    8.70846    0.41832
       H    16.98444   14.48052    5.47766
       O    16.13735   14.04261    5.58735
      H1    15.89803   14.20156    6.46168
       H    19.57556   12.35124   -0.24671
       O    18.65591   12.00733   -0.26315
      H1    18.04096   12.39446    0.31058
       H    19.41809   14.15186    4.96525
       O    18.77511   14.05391    4.29681
      H1    18.80947   13.08771    4.15759
       H    17.41355   15.98552    4.05667
       O    16.73372   16.66282    4.12531
      H1    17.13683   17.44622    4.47579
       H    14.12651   13.26297   -0.69340
       O    14.55083   12.75992   -0.03466
      H1    14.28733   11.89177   -0.32381
       H    14.83862   10.10906    3.63002
       O    13.85329   10.19430    3.59524
      H1    13.55290   10.25748    4.49701
       H    13.12160   13.52124    3.12955
       O    12.69923   12.69054    2.95177
      H1    13.18717   11.94135    3.32544

