39
frame 8 | Written by MDAnalysis XYZWriter (release 2.4.3)
       H    12.43083   -2.47656   -0.44819
       O    12.98970   -2.09589   -1.13101
      H1    13.48990   -2.84403   -1.55686
       H    18.36248   -5.68976   -4.20216
       O    19.19939   -6.13787   -3.94498
      H1    19.40343   -6.02561   -3.03862
       H    14.14777   -4.79506   -3.20172
       O    14.27704   -4.31282   -2.35194
      H1    14.02013   -4.93320   -1.63667
       H    15.28012   -1.23982   -3.78883
       O    15.85865   -0.92646   -3.07475
      H1    15.28063   -0.28272   -2.54761
       H    17.63196   -2.90513    0.07556
       O    16.71572   -3.11084    0.05772
      H1    16.46662   -3.18196   -0.89214
       H    16.87609   -4.60336   -3.64524
       O    16.74311   -5.00318   -4.49786
      H1    15.87454   -5.38288   -4.58532
       H    18.27279   -2.94323   -2.52657
       O    17.37467   -3.29154   -2.62195
      H1    16.86003   -2.47451   -2.62710
       H    16.55129   -6.30397    0.86667
       O    15.99780   -5.57865    1.16906
      H1    16.27066   -4.79317    0.68373
       H    15.34197   -1.32346    0.95761
       O    15.04898   -0.40752    1.26069
      H1    14.47533   -0.58003    2.06238
       H    17.56397    0.36677   -5.61361
       O    17.68435    0.43361   -4.69758
      H1    16.85137    0.06870   -4.27046
       H    13.67716   -2.27226   -4.73074
       O    14.56960   -2.51975   -5.12443
      H1    14.58421   -3.48399   -5.19753
       H    18.11468   -6.99810   -1.19139
       O    17.29176   -7.08204   -0.61690
      H1    17.35890   -7.95405   -0.14867
       H    16.68062   -2.33073   -6.01484
       O    17.42728   -2.80772   -6.40061
      H1    17.50106   -3.62817   -5.90850

