39
frame 8 | Written by MDAnalysis XYZWriter (release 2.4.3)
       H     7.99810   -2.00436   16.70870
       O     7.90443   -2.97683   16.76122
      H1     8.81160   -3.17277   17.00550
       H     8.56668   -8.40188   13.96187
       O     9.15213   -7.69638   13.55170
      H1     9.15995   -7.90276   12.61235
       H    10.46340  -10.74814   16.08325
       O    10.42761  -10.44648   17.01744
      H1    10.25838  -11.24203   17.54368
       H    11.40291   -9.40862   18.21045
       O    11.64122   -8.72149   18.89431
      H1    11.07084   -8.97057   19.61792
       H     6.80267  -11.05168   19.30945
       O     6.38633  -10.82026   18.47076
      H1     6.82284  -10.03765   18.08306
       H    11.39901   -5.84119   17.19070
       O    11.13753   -5.30681   16.43268
      H1    11.90031   -4.71092   16.29746
       H     7.93674   -4.72881   14.31938
       O     8.01128   -3.78490   14.19816
      H1     7.91166   -3.46880   15.13566
       H     4.43533   -7.16667   18.52893
       O     4.17922   -6.72597   17.71449
      H1     5.07173   -6.38725   17.48943
       H     8.81610   -4.81250   20.24997
       O     9.14030   -5.05606   19.37090
      H1     8.31712   -5.15741   18.89939
       H     8.24610   -8.01299   17.64697
       O     8.26076   -8.91063   17.28901
      H1     9.10704   -9.37737   17.24420
       H     7.91618   -9.37659   15.46375
       O     7.73231   -9.74515   14.58233
      H1     6.77782   -9.89052   14.53788
       H     6.46537   -6.76305   14.36674
       O     7.04113   -6.40714   15.04847
      H1     7.86744   -6.80185   14.79203
       H     6.86715   -5.88764   16.89218
       O     6.85663   -5.98638   17.84537
      H1     6.58005   -5.12778   18.22051

