39
frame 8 | Written by MDAnalysis XYZWriter (release 2.4.3)
       H     3.08708   10.87012   18.34759
       O     3.19658    9.94156   18.18078
      H1     4.13522    9.72845   18.06626
       H     5.98936    5.61193   17.67833
       O     5.17688    6.11855   17.74988
      H1     4.97483    6.40706   16.86201
       H     3.28484    5.74827   19.00398
       O     2.94444    5.76161   19.92633
      H1     3.02963    6.68540   20.15395
       H     3.56766    6.66399   15.09134
       O     4.34676    7.20184   15.33425
      H1     3.92476    8.09765   15.51023
       H     2.85943    5.11267   13.73873
       O     3.67888    4.60743   13.87268
      H1     3.55330    4.04478   14.70448
       H     2.88670   10.20128   15.12006
       O     2.65895    9.43313   15.64857
      H1     2.84665    9.73663   16.53425
       H    -2.09476    6.38301   18.09788
       O    -1.53862    6.84330   17.49706
      H1    -0.77450    7.16653   17.99541
       H     0.80407    7.10881   16.12401
       O     0.68811    7.63172   15.29722
      H1     1.35125    8.27612   15.34071
       H    -1.53414    3.44555   18.21271
       O    -0.85085    2.89524   18.64474
      H1    -0.46245    3.43321   19.31005
       H     0.84293    4.74207   16.99721
       O     1.65493    5.16829   16.99823
      H1     2.33898    4.51388   17.03116
       H     2.51131    2.71334   16.33576
       O     3.44717    3.01218   16.12103
      H1     3.99656    2.37640   16.65577
       H     8.41974    4.43015   18.28191
       O     7.66344    4.98352   18.58008
      H1     7.35984    4.58448   19.38822
       H     5.49093    7.87971   18.10351
       O     5.63779    8.82181   17.93571
      H1     6.48124    9.04655   18.37136

