39
frame 0 | Written by MDAnalysis XYZWriter (release 2.4.3)
       H    14.07006   -7.98516   11.40223
       O    13.45323   -8.14476   10.66594
      H1    13.79824   -7.57357    9.98407
       H    16.75958  -11.42079    3.58374
       O    16.09859  -11.09198    4.19264
      H1    15.51634  -10.54285    3.64489
       H    14.55240   -6.61656    4.45469
       O    13.76318   -6.06655    4.55963
      H1    13.38272   -6.37016    5.41839
       H    13.88310  -10.29576    7.77102
       O    14.14280  -10.46565    6.81234
      H1    14.33161  -11.42427    6.86882
       H    14.12374   -9.31413    1.91104
       O    15.01221   -9.32978    2.23956
      H1    15.14723   -8.54133    2.75786
       H    17.02090   -7.29250    3.99181
       O    16.13166   -7.78215    3.98245
      H1    16.07931   -8.08753    4.87314
       H    13.50544   -9.65930   10.14238
       O    13.69164  -10.48807    9.63737
      H1    12.96457  -11.10382    9.71532
       H    15.91640   -5.24383    9.13655
       O    16.68083   -4.83199    9.51515
      H1    17.12383   -5.58120    9.90808
       H    18.94270  -10.94833    5.90359
       O    18.64466  -10.24076    5.27865
      H1    17.67022  -10.38204    5.21811
       H    13.99867   -5.87936    8.20027
       O    14.59688   -6.50360    8.64400
      H1    14.88892   -7.13440    7.91038
       H    18.57461   -9.09447    6.40872
       O    18.38372   -8.48630    7.13422
      H1    18.73588   -7.63582    6.83354
       H    15.26705   -9.24513    6.88047
       O    15.62175   -8.31137    6.83936
      H1    16.58127   -8.31172    6.97800
       H    18.38372   -8.42166    8.96381
       O    18.43159   -8.65550    9.92022
      H1    18.17244   -9.63978    9.93115

