39
frame 8 | Written by MDAnalysis XYZWriter (release 2.4.3)
       H     3.13240   -4.56757  -10.58849
       O     2.63045   -4.59926  -11.37538
      H1     1.87024   -5.18605  -11.38603
       H     0.16781   -3.84012   -9.98374
       O    -0.26393   -2.99248  -10.02013
      H1    -0.87236   -3.03329   -9.21081
       H     0.55090   -4.14193   -5.35875
       O     0.59174   -3.19897   -5.77723
      H1     1.34330   -3.19091   -6.40366
       H     0.44343   -6.24236   -9.34115
       O     0.22443   -5.39111   -8.93489
      H1     0.85670   -5.21754   -8.27343
       H     4.57714   -3.66619   -9.15407
       O     3.81279   -4.24019   -9.09798
      H1     3.09356   -3.59854   -8.84768
       H     2.14299   -0.47865   -4.25265
       O     1.24957   -0.64654   -4.62579
      H1     1.29518   -1.58319   -4.96198
       H    -0.93073   -2.86446   -6.76911
       O    -1.65213   -3.02632   -7.38115
      H1    -2.44217   -2.43912   -7.23053
       H     2.71282   -1.55598  -11.95015
       O     3.22338   -2.25448  -12.36058
      H1     2.90291   -3.07355  -11.90591
       H     0.87527    0.08143  -10.14269
       O     1.55524    0.13954  -10.83442
      H1     1.86612    1.05614  -10.84683
       H    -1.75653    0.58090   -9.33896
       O    -1.52302    0.05953  -10.16529
      H1    -2.33596   -0.39753  -10.41403
       H    -0.96741   -2.80449  -11.56315
       O    -1.46042   -2.72482  -12.38535
      H1    -1.52077   -3.56787  -12.76696
       H     4.14894   -1.57118   -7.23318
       O     3.81332   -0.96163   -7.91506
      H1     3.64723   -0.13964   -7.41501
       H     2.35957   -1.89255   -7.97635
       O     1.77702   -2.66088   -8.15951
      H1     1.08174   -2.39320   -8.74008

