39
frame 7 | Written by MDAnalysis XYZWriter (release 2.4.3)
       H     8.61369  -18.94670   16.89111
       O     9.16747  -18.47072   17.48237
      H1     9.05985  -17.57604   17.13214
       H     9.03961  -14.09476   13.99369
       O     9.67301  -14.66593   14.43221
      H1     9.20404  -15.11746   15.18321
       H     8.62901  -15.57379   19.37848
       O     9.45600  -15.08464   19.45898
      H1     9.37937  -14.17531   19.00283
       H     5.67766  -15.98289   20.14545
       O     6.43769  -16.01037   19.52826
      H1     6.36154  -15.22313   18.97285
       H    10.01622  -12.07170   19.55514
       O    10.27431  -12.51927   18.75882
      H1    11.22411  -12.69802   18.86107
       H     6.60693  -11.72934   18.55498
       O     6.27366  -11.38341   17.70091
      H1     6.71330  -10.58115   17.52287
       H     7.82226  -16.61615   15.55991
       O     8.46719  -16.27212   16.19909
      H1     7.98661  -15.73027   16.85682
       H    12.45330  -16.93124   19.45621
       O    11.61096  -17.43057   19.50508
      H1    10.93787  -16.73496   19.33868
       H    13.09453  -14.13442   18.39380
       O    12.93541  -13.18552   18.25301
      H1    12.53272  -13.21857   17.34519
       H     5.64391  -17.28576   18.50783
       O     5.53150  -18.20093   18.10246
      H1     4.97495  -18.59944   18.76292
       H    10.51308  -18.46578   16.57957
       O    11.26875  -18.72916   16.05601
      H1    11.43523  -17.94852   15.49780
       H    10.47310  -19.80411   20.08206
       O     9.51803  -19.58281   19.93214
      H1     9.51253  -19.24040   19.02125
       H     6.49621  -13.43828   16.84735
       O     6.53365  -14.23680   17.42138
      H1     5.67776  -14.64887   17.39803

