39
frame 0 | Written by MDAnalysis XYZWriter (release 2.4.3)
       H   -18.50897   14.41114   11.04354
       O   -17.95091   13.71812   10.60643
      H1   -18.47999   13.35567    9.84475
       H   -13.64542   11.23461    8.96952
       O   -14.51755   10.99662    8.52547
      H1   -15.02229   11.83210    8.45226
       H   -14.75862   15.98610   14.53483
       O   -15.39545   15.39494   14.09746
      H1   -16.21172   15.53541   14.62962
       H   -17.67905   19.12893    8.31481
       O   -16.87840   18.61651    8.09336
      H1   -16.95716   17.82106    8.63754
       H   -14.63845   17.03167    8.72742
       O   -14.57777   16.23011    8.11096
      H1   -15.15799   15.59322    8.61155
       H   -19.33978   11.72485   13.88839
       O   -18.95857   12.22273   14.62834
      H1   -19.19315   11.64320   15.41389
       H   -18.64109   13.97015   14.72329
       O   -18.40240   14.91788   14.80167
      H1   -18.84838   15.32082   15.61604
       H   -19.77193   13.54627    8.09259
       O   -18.91920   13.68719    7.74623
      H1   -19.09073   14.44480    7.16293
       H   -15.76039   16.43593   12.83905
       O   -15.84918   17.12780   12.16656
      H1   -15.02982   17.35338   11.64892
       H   -19.02665   15.86818   13.15853
       O   -19.20354   15.88138   12.17353
      H1   -19.38299   16.83513   12.11308
       H   -17.78901   15.60079    9.71521
       O   -17.22038   16.33393    9.71852
      H1   -16.83200   16.36599   10.59974
       H   -19.04631    8.98350    9.13909
       O   -18.56811    9.45054    9.83828
      H1   -18.70907    8.87188   10.61805
       H   -16.57424   13.72284    8.92721
       O   -15.75352   13.54349    8.39826
      H1   -16.06191   13.34898    7.46490

