39
frame 7 | Written by MDAnalysis XYZWriter (release 2.4.3)
       H    16.34014    6.57450   10.87842
       O    15.52379    7.01795   10.61078
      H1    14.89771    6.44557   11.04962
       H    18.85057    6.03897    9.63757
       O    18.37549    5.57769   10.35846
      H1    18.96247    4.80778   10.53172
       H    17.61523   11.64622   12.60702
       O    17.86973   11.70942   13.50102
      H1    18.64591   11.18827   13.54618
       H    17.33596    3.57823   13.39822
       O    17.26195    3.79926   14.31837
      H1    16.39464    3.43190   14.59954
       H    19.87996    9.10153   17.65198
       O    19.40029    8.28753   17.63978
      H1    18.50493    8.48326   18.02503
       H    15.01860    6.70383   18.03934
       O    15.96558    6.50797   18.16067
      H1    16.48099    6.20945   17.40035
       H    18.78812   10.40404   10.42469
       O    18.06244   10.95573   10.84093
      H1    17.38651   10.31235   11.03563
       H    18.97324    6.85269   14.97007
       O    19.84872    7.06577   14.65783
      H1    20.25579    7.50536   15.42843
       H    17.00096    5.28978   15.36914
       O    17.09297    6.15132   15.81213
      H1    16.41991    6.74092   15.36600
       H    16.60522   11.51225   14.91489
       O    15.87023   11.99052   15.27158
      H1    16.01089   12.91205   15.03679
       H    14.64728    7.78614   15.03393
       O    15.43875    8.24319   15.25766
      H1    15.37983    8.55267   16.17319
       H    16.74817   10.16720   18.36627
       O    17.20179    9.42365   18.79669
      H1    16.59074    8.72691   18.92782
       H    19.34222    2.27803   16.51900
       O    19.23574    2.16137   15.55429
      H1    18.45099    2.74426   15.33049

