39
frame 7 | Written by MDAnalysis XYZWriter (release 2.4.3)
       H    -7.39412   -5.30075   18.06230
       O    -6.72282   -5.42438   18.75101
      H1    -5.81569   -5.12990   18.53695
       H    -9.03610   -4.30941   19.98548
       O   -10.00027   -4.57615   19.97387
      H1   -10.37086   -4.58024   19.05704
       H    -7.24584   -7.68344   15.33274
       O    -7.38542   -7.12485   14.54962
      H1    -8.05559   -7.62362   14.02203
       H    -4.85734  -10.75354   16.60888
       O    -4.67594  -10.35244   15.75690
      H1    -3.82536  -10.68193   15.45080
       H    -1.94204   -7.02045   17.67791
       O    -2.11635   -7.87635   18.08922
      H1    -1.64594   -7.77139   18.89691
       H    -6.80216   -7.21462   19.39195
       O    -6.58407   -8.14665   19.18818
      H1    -6.85443   -8.28973   18.28275
       H    -6.26636   -9.44189   16.25828
       O    -7.00007   -8.88559   16.57425
      H1    -7.82467   -9.28135   16.27928
       H    -8.89970   -4.43922   15.89137
       O    -8.65128   -5.28403   16.37737
      H1    -7.93731   -5.72445   15.86766
       H   -10.26644   -7.42276   17.87370
       O   -10.43331   -7.19316   16.94175
      H1    -9.70838   -6.58742   16.70061
       H    -6.16240  -12.09203   18.82280
       O    -6.05240  -11.73992   17.88854
      H1    -6.28894  -12.47995   17.29184
       H    -5.60640   -7.33702   17.93361
       O    -4.95703   -7.04575   17.22946
      H1    -4.28737   -7.72924   17.30537
       H    -3.52130   -4.16479   18.25992
       O    -4.41028   -3.86161   18.27077
      H1    -4.59802   -3.45883   17.38239
       H    -9.09682  -11.00555   17.69576
       O    -8.71943  -10.89884   18.55428
      H1    -7.81677  -11.04672   18.22771

