39
frame 7 | Written by MDAnalysis XYZWriter (release 2.4.3)
       H   -13.37979   -0.08346  -16.02306
       O   -14.30337   -0.33037  -16.22766
      H1   -14.76426    0.47847  -15.95383
       H   -17.80695    6.57306  -17.04611
       O   -17.33554    5.80394  -17.36844
      H1   -16.46133    5.89588  -17.02115
       H   -10.16842    5.22104  -18.88920
       O   -10.79819    5.15212  -18.12470
      H1   -10.62186    5.99301  -17.71561
       H   -11.27240    7.47479  -16.31351
       O   -10.57321    7.67686  -17.04366
      H1   -11.08864    8.28610  -17.62773
       H   -16.04628   -0.63329  -18.98908
       O   -15.26207   -1.08840  -18.67710
      H1   -15.08362   -0.90335  -17.70827
       H   -13.60635    1.73162  -18.98576
       O   -13.41189    0.86699  -19.27741
      H1   -13.94514    0.27588  -18.69658
       H   -11.03623    2.87917  -16.89440
       O   -10.23432    2.42300  -16.69201
      H1   -10.47074    1.71860  -16.06915
       H    -9.70574    0.02664  -19.35365
       O    -9.29746    0.84899  -19.04980
      H1    -9.73467    1.11481  -18.21111
       H   -14.82747    3.42647  -19.16578
       O   -13.96978    3.36791  -18.88546
      H1   -13.43950    3.99018  -19.41980
       H   -14.21833    4.84109  -17.53635
       O   -14.32290    5.77872  -17.24724
      H1   -13.78612    5.99675  -16.45508
       H   -18.48217    3.36930  -15.47767
       O   -17.87322    3.30720  -16.27025
      H1   -17.67659    4.14374  -16.71153
       H   -12.67920    7.37457  -14.84635
       O   -12.31081    6.55766  -15.30067
      H1   -11.66445    6.31562  -14.62910
       H   -16.41599    2.22218  -15.87469
       O   -15.72017    1.88631  -15.28194
      H1   -15.54657    2.52594  -14.60759

