39
frame 9 | Written by MDAnalysis XYZWriter (release 2.4.3)
       H    13.25626   20.37157   11.81457
       O    13.27923   19.82094   12.58444
      H1    13.07946   18.92103   12.19220
       H    15.05966   15.52390    3.74749
       O    14.17144   15.20215    3.98203
      H1    13.79911   15.83148    4.63007
       H    14.30241   17.67867    8.08104
       O    14.22842   18.26609    8.86932
      H1    15.08786   18.66565    9.08490
       H    10.10899   18.36408    9.74465
       O    10.01699   18.92448    8.97558
      H1     9.09566   19.02978    8.85497
       H    12.79901   17.42431    6.15521
       O    13.66530   17.25547    5.78896
      H1    13.64127   17.71219    4.95575
       H    16.19653   19.94283    9.44216
       O    16.58932   19.09006    9.80323
      H1    16.36271   19.02189   10.76974
       H    14.88477   14.12291    6.30755
       O    14.45625   13.30429    6.23708
      H1    14.46037   12.87474    7.11546
       H    15.50477   18.77355    5.69945
       O    16.37387   18.52277    6.01168
      H1    16.81740   19.37216    5.82825
       H    11.29553   18.37428    5.51476
       O    11.25299   19.00280    4.76331
      H1    10.53086   18.76575    4.18593
       H    10.88192   17.89932    7.81431
       O    11.24799   17.32830    7.08171
      H1    10.47757   16.97807    6.62522
       H    18.61567   16.50664    8.60013
       O    19.09165   17.13979    8.09512
      H1    18.30682   17.72014    7.81227
       H    13.59183   16.81654   11.71351
       O    13.01831   17.38486   11.20580
      H1    13.45641   17.40714   10.38093
       H    17.41474   15.74672    4.96507
       O    16.68603   16.27885    4.55773
      H1    16.66996   17.13640    5.01884

