39
frame 0 | Written by MDAnalysis XYZWriter (release 2.4.3)
       H   -12.56680   12.49716   -5.96190
       O   -12.85297   13.41119   -6.07416
      H1   -12.29591   13.65542   -6.83278
       H   -13.37204   17.70671   -5.78672
       O   -13.02966   17.98272   -4.88843
      H1   -12.53188   17.18860   -4.54421
       H   -15.79206   13.76457   -2.81437
       O   -14.97472   14.11248   -3.22854
      H1   -14.29554   13.78989   -2.58413
       H   -10.87037   16.73275   -6.34945
       O   -11.42659   16.06691   -6.76283
      H1   -12.34017   16.35946   -6.81848
       H   -15.61876   12.42616   -4.84416
       O   -15.41824   11.44780   -4.81667
      H1   -16.29395   11.04679   -4.93870
       H   -17.56311   14.47334  -10.61170
       O   -16.70931   14.08393  -10.76021
      H1   -16.50249   13.59561   -9.86037
       H   -12.31017   14.73503   -4.83664
       O   -12.47231   15.24377   -3.99392
      H1   -13.23782   14.84246   -3.53111
       H   -16.89454   15.92771   -3.68755
       O   -17.05317   16.82326   -3.54445
      H1   -17.48186   17.08853   -4.37327
       H   -14.86069   15.36890   -6.85834
       O   -15.24686   14.48574   -6.84375
      H1   -14.63511   13.92927   -6.39258
       H   -18.87722   14.04970   -6.94292
       O   -18.44135   13.57906   -6.24749
      H1   -17.63835   13.24668   -6.70634
       H   -15.06608   17.81966   -7.04283
       O   -14.37867   17.08193   -7.16775
      H1   -14.14417   17.15601   -8.10678
       H   -14.38237    9.51296   -7.27282
       O   -14.81737   10.28559   -7.56349
      H1   -14.86248   10.79698   -6.70022
       H   -16.04850   13.46811   -7.86251
       O   -16.44963   12.77486   -8.43098
      H1   -15.70759   12.07808   -8.50625

