39
frame 0 | Written by MDAnalysis XYZWriter (release 2.4.3)
       H     6.49076  -16.40067  -11.07166
       O     5.57272  -16.58302  -10.99427
      H1     5.12184  -16.21801  -11.76932
       H    -0.05430  -10.13620  -11.38171
       O     0.50589   -9.86368  -12.13776
      H1     1.24152  -10.43021  -11.97291
       H     5.32863  -16.24416  -14.89050
       O     6.13766  -15.73747  -14.66907
      H1     6.68108  -15.69081  -15.45547
       H     6.12169  -13.00086  -11.08241
       O     6.16217  -13.21154  -12.01816
      H1     7.07518  -13.39686  -12.24620
       H     5.74494  -12.27856  -16.80874
       O     6.04649  -13.15230  -16.90960
      H1     6.07993  -13.58609  -16.05432
       H     4.71188  -13.71760   -8.69506
       O     5.06034  -13.10630   -9.41982
      H1     5.31789  -12.23500   -9.06168
       H     1.27690  -14.30257  -14.10801
       O     1.83162  -13.61539  -14.50422
      H1     1.29130  -12.83156  -14.63471
       H     3.61295  -14.96162  -13.55350
       O     3.47437  -15.48017  -12.73744
      H1     2.55719  -15.77868  -12.82578
       H     2.96933  -11.88632  -11.86707
       O     2.19310  -11.99126  -11.27530
      H1     2.55261  -11.89449  -10.39691
       H     5.59530  -10.07687  -14.93928
       O     5.30545  -10.75271  -15.56119
      H1     4.90144  -11.33991  -14.83008
       H     8.16223   -9.50249  -12.25507
       O     7.61332  -10.17477  -12.80247
      H1     7.36485  -10.81572  -12.12328
       H     3.17647  -12.79635  -13.86593
       O     3.92291  -12.23096  -13.53976
      H1     4.59143  -12.79409  -13.12007
       H     7.70913  -15.28788  -12.73652
       O     8.22580  -15.50930  -11.98510
      H1     8.55529  -16.39669  -12.18059

