39
frame 0 | Written by MDAnalysis XYZWriter (release 2.4.3)
       H     4.02036    5.98482    2.16039
       O     4.46010    5.22706    1.78127
      H1     3.79997    4.79036    1.36204
       H     6.33767    4.87895    4.22322
       O     6.18205    4.60895    5.10719
      H1     6.55429    5.23834    5.77029
       H     9.46627    7.35033    4.49410
       O    10.29757    6.92546    4.84436
      H1    10.98872    7.05829    4.22326
       H     5.81976    4.09728    1.33448
       O     6.46016    3.50980    0.94655
      H1     6.76879    3.88896    0.09749
       H    11.18219    5.77887    2.01387
       O    11.02424    4.90931    1.65133
      H1    11.56694    4.85374    0.81694
       H     8.37400    9.15285    4.24964
       O     8.09453    8.21129    4.16287
      H1     8.22950    7.92663    3.28487
       H     5.04257    8.30929    0.35407
       O     6.03248    8.25035    0.51004
      H1     6.58294    9.03538    0.24119
       H     7.25609    6.83147    1.43069
       O     8.09114    6.74665    1.85568
      H1     8.11214    5.81835    2.10359
       H     6.10861    2.37466    2.37039
       O     5.85884    1.65922    2.95078
      H1     6.34198    1.71806    3.76876
       H     7.57375    6.84763   -1.71040
       O     7.15052    7.46635   -2.33965
      H1     7.58506    7.28417   -3.18635
       H     5.46881    7.62834    3.89270
       O     4.91729    7.82524    3.12128
      H1     5.49651    7.99401    2.37546
       H     7.91977    3.73603    1.98377
       O     8.48684    4.21894    2.64208
      H1     9.37920    4.32943    2.28340
       H    10.03999    7.01620   -0.92385
       O     9.33183    6.40577   -0.56051
      H1     8.97246    6.68909    0.33328

