39
frame 9 | Written by MDAnalysis XYZWriter (release 2.4.3)
       H     5.72964   -8.10192    9.25261
       O     5.61638   -7.96478   10.24605
      H1     6.04781   -8.72658   10.60851
       H     8.50126   -9.09086    7.38681
       O     8.12580   -8.75324    6.50405
      H1     8.68436   -7.99788    6.23534
       H     3.94395   -7.71477    5.38519
       O     3.47041   -7.04820    5.90538
      H1     3.95843   -6.20889    5.61199
       H     5.18919   -7.22585    6.94370
       O     5.96092   -7.36708    7.45159
      H1     6.58704   -7.83893    6.91912
       H     3.97176   -3.87900    8.83615
       O     4.58537   -3.49241    9.49661
      H1     5.27518   -4.16746    9.68035
       H     8.98911   -4.99269    4.76687
       O     9.72575   -4.30999    4.75684
      H1    10.21521   -4.51916    3.93045
       H     5.51249   -3.78357    5.08424
       O     5.39884   -4.68850    4.86733
      H1     4.57122   -4.61025    4.32364
       H     7.15073   -6.07437    7.32709
       O     7.87058   -5.53788    7.61728
      H1     8.55873   -5.60155    6.93277
       H     6.41233   -6.33261   10.20528
       O     6.68459   -5.40081   10.13320
      H1     7.23932   -5.34474    9.36479
       H     6.96645   -5.72527    4.48124
       O     7.82147   -6.20748    4.62953
      H1     8.23269   -6.35500    3.76349
       H     6.44816   -2.28041    6.24113
       O     5.83646   -2.22525    5.51092
      H1     6.39348   -2.00764    4.72933
       H    10.79052   -5.30140    6.70701
       O    10.53745   -6.17512    7.04782
      H1    10.63441   -6.04526    8.02514
       H     6.04976   -2.85871    8.48512
       O     6.93449   -2.94487    8.04154
      H1     7.07922   -3.89367    7.87000

