39
frame 8 | Written by MDAnalysis XYZWriter (release 2.4.3)
       H     8.17651  -12.08781    6.24679
       O     8.68570  -12.83964    6.64027
      H1     8.19765  -13.15562    7.39398
       H    11.31477  -14.40646    1.46708
       O    11.66948  -14.66367    2.34127
      H1    12.07512  -15.56108    2.34982
       H     7.82357  -14.13504    5.66841
       O     7.49724  -14.90187    5.19491
      H1     7.68210  -14.75324    4.26854
       H     8.48001  -16.19568   -0.53534
       O     8.86562  -15.52120   -0.00655
      H1     8.66752  -15.83604    0.87470
       H     8.35703  -13.08991    2.86414
       O     7.92871  -13.92270    2.69211
      H1     8.61343  -14.57623    2.82283
       H     9.79478  -16.53052    9.01749
       O     9.84359  -16.72552    9.99476
      H1     9.10192  -16.22653   10.33416
       H    11.97393  -14.39266    8.89834
       O    11.82200  -14.12139    8.01095
      H1    12.69787  -14.03592    7.61201
       H     9.98808  -18.70905    4.76143
       O     9.18731  -18.16319    4.71790
      H1     9.23274  -17.74854    5.57436
       H    12.13956  -17.38118    1.51165
       O    12.33447  -17.54375    2.41030
      H1    11.46755  -17.52112    2.82756
       H     7.19599  -15.09359    8.30300
       O     7.28284  -14.18515    8.57308
      H1     7.23610  -14.17975    9.49124
       H     9.72868  -18.11000    1.97456
       O     9.33667  -17.29848    2.27769
      H1     9.20438  -17.33683    3.25329
       H     8.62818  -16.70756    7.43443
       O     9.53547  -16.76127    7.23862
      H1     9.76041  -15.83009    6.99064
       H     6.63933  -16.63602    6.56917
       O     6.91208  -16.73806    7.48582
      H1     6.12153  -17.18700    7.82956

