39
frame 9 | Written by MDAnalysis XYZWriter (release 2.4.3)
       H    -4.27658  -19.25210  -16.33058
       O    -4.70800  -18.54240  -16.78999
      H1    -5.55213  -18.88630  -17.09229
       H    -7.71316  -16.21224  -15.06945
       O    -8.52404  -16.07734  -14.50301
      H1    -8.43330  -16.46186  -13.61222
       H    -4.46426  -14.04627  -14.04575
       O    -4.93484  -13.72976  -13.22915
      H1    -4.73024  -14.38927  -12.58560
       H    -4.95400  -17.69068  -14.45862
       O    -5.02730  -16.78602  -14.15572
      H1    -4.96402  -16.87044  -13.20404
       H    -6.28402  -10.84307  -16.62692
       O    -5.63245  -10.95338  -15.90753
      H1    -6.07548  -10.69375  -15.11997
       H    -6.48331  -16.83073  -16.61659
       O    -6.43861  -15.90304  -16.38327
      H1    -5.91907  -15.99261  -15.59453
       H    -2.21706  -16.79512  -18.18643
       O    -1.97952  -17.53662  -18.83215
      H1    -1.12867  -17.23255  -19.22356
       H    -4.56782  -13.07469  -16.71022
       O    -4.12869  -13.34522  -15.87710
      H1    -3.74361  -12.54734  -15.59305
       H    -3.64414  -10.58783  -20.26707
       O    -3.84303  -11.37044  -19.79264
      H1    -4.40277  -11.01759  -19.10742
       H    -1.68793  -15.70733  -15.88370
       O    -1.99244  -15.22542  -16.64456
      H1    -2.78612  -14.74563  -16.36492
       H    -8.34619  -15.72398  -18.54129
       O    -8.87577  -15.57724  -17.76104
      H1    -8.23634  -15.51746  -17.01121
       H    -6.32396  -15.08105  -19.41320
       O    -5.63823  -14.64540  -18.85020
      H1    -5.79360  -15.01795  -17.99140
       H    -7.02338  -12.95810  -18.35131
       O    -7.54237  -12.23184  -18.03756
      H1    -7.54389  -11.49725  -18.66742

