39
frame 9 | Written by MDAnalysis XYZWriter (release 2.4.3)
       H     9.28766  -12.94534   -1.44948
       O     8.49870  -12.83369   -2.01140
      H1     8.85452  -12.46556   -2.81294
       H     8.55006  -16.75285   -0.81930
       O     9.22130  -16.10199   -0.64667
      H1     8.80148  -15.57903    0.06054
       H     8.45460  -14.12572   -3.36302
       O     8.26542  -14.82305   -4.04534
      H1     8.58155  -14.43579   -4.89198
       H     9.13407  -10.50885   -4.11929
       O     9.55383  -11.37150   -4.20071
      H1    10.02213  -11.38330   -5.03073
       H     8.87792   -9.74708   -0.03651
       O     9.02875  -10.67199    0.29445
      H1     8.58431  -11.10229   -0.43463
       H     7.15257  -12.88390   -0.70571
       O     6.29521  -12.59925   -0.45699
      H1     6.35095  -12.22461    0.35674
       H     6.54870  -15.41681   -3.66293
       O     5.63387  -15.78898   -3.33022
      H1     5.16549  -15.03426   -2.91502
       H    10.19575  -17.43524   -3.84863
       O     9.23098  -17.29417   -3.87489
      H1     9.15648  -16.34497   -3.73353
       H     3.26926  -13.98780   -1.55146
       O     4.05385  -13.79696   -2.04972
      H1     4.63627  -13.25280   -1.45968
       H    10.48922  -11.96733    0.13017
       O    10.86053  -12.86993    0.12324
      H1    11.71616  -12.77037   -0.32711
       H     8.32249   -8.45795   -4.01075
       O     7.84559   -9.28930   -3.82150
      H1     7.15672   -9.17442   -3.20684
       H    12.22924  -12.46987   -2.96621
       O    11.62659  -11.80870   -2.61646
      H1    10.83777  -11.81451   -3.20185
       H     5.95583  -10.56270   -1.33007
       O     5.75129   -9.85702   -1.99735
      H1     5.22586  -10.41420   -2.63371

