39
frame 9 | Written by MDAnalysis XYZWriter (release 2.4.3)
       H    15.51639   13.08392    4.86927
       O    16.34230   12.77203    4.42827
      H1    16.54104   11.92426    4.89205
       H    14.66710   10.77494   11.39362
       O    14.96407    9.98763   11.75401
      H1    14.69053    9.27624   11.15399
       H    18.09095    9.97500    4.49617
       O    17.22171    9.98970    4.91162
      H1    16.89665    9.05997    4.81047
       H    17.47898   14.50587    9.98305
       O    18.15690   15.20027   10.22469
      H1    17.69923   15.56882   11.00226
       H    17.86909   10.75591    6.80103
       O    18.28616   11.55022    7.14856
      H1    19.18023   11.60875    6.78709
       H    16.95346   12.14577    9.78248
       O    16.71067   12.87008    9.22225
      H1    17.02473   12.74965    8.29349
       H    14.88477   14.12291    6.30755
       O    14.45625   13.30429    6.23708
      H1    14.46037   12.87474    7.11546
       H    15.14026   12.28494    8.77826
       O    14.26844   11.96496    8.54536
      H1    14.46317   11.10882    8.04701
       H    14.03561    9.27824    6.33762
       O    14.64031    9.82961    6.82029
      H1    15.54202    9.47582    6.78699
       H    18.31084   10.27281   10.77903
       O    17.60746   10.96071   11.00519
      H1    16.80852   10.42519   11.11115
       H    19.19489   14.05494    5.81745
       O    18.59534   14.32918    5.04328
      H1    18.00093   13.54497    4.90455
       H    18.61567   16.50664    8.60013
       O    19.09165   17.13979    8.09512
      H1    18.30682   17.72014    7.81227
       H    17.41474   15.74672    4.96507
       O    16.68603   16.27885    4.55773
      H1    16.66996   17.13640    5.01884

