39
frame 9 | Written by MDAnalysis XYZWriter (release 2.4.3)
       H    12.16042   -6.51213    9.53566
       O    11.27795   -6.40525    9.85866
      H1    11.26386   -5.91052   10.69569
       H     8.50126   -9.09086    7.38681
       O     8.12580   -8.75324    6.50405
      H1     8.68436   -7.99788    6.23534
       H     8.98911   -4.99269    4.76687
       O     9.72575   -4.30999    4.75684
      H1    10.21521   -4.51916    3.93045
       H    11.33419   -9.13212    6.03112
       O    11.86394   -9.92693    6.14429
      H1    12.47462   -9.65152    6.82532
       H    11.12258   -3.39143    6.02256
       O    11.41026   -3.50056    6.98485
      H1    12.16498   -2.79847    7.07268
       H    12.38422   -4.54809    3.52016
       O    12.66832   -3.80654    4.10261
      H1    13.60333   -3.98744    4.15328
       H     7.15073   -6.07437    7.32709
       O     7.87058   -5.53788    7.61728
      H1     8.55873   -5.60155    6.93277
       H    13.56152   -4.74800    7.53448
       O    14.29741   -5.22685    7.17086
      H1    14.64267   -4.76326    6.40759
       H     6.96645   -5.72527    4.48124
       O     7.82147   -6.20748    4.62953
      H1     8.23269   -6.35500    3.76349
       H    11.42197   -7.15547    5.73196
       O    11.61355   -7.37107    4.81369
      H1    12.50582   -7.14492    4.56964
       H     9.97666   -2.48603    7.72176
       O     9.42077   -1.89468    8.28481
      H1     8.51908   -2.27075    8.22459
       H    10.79052   -5.30140    6.70701
       O    10.53745   -6.17512    7.04782
      H1    10.63441   -6.04526    8.02514
       H     6.04976   -2.85871    8.48512
       O     6.93449   -2.94487    8.04154
      H1     7.07922   -3.89367    7.87000

