39
frame 9 | Written by MDAnalysis XYZWriter (release 2.4.3)
       H    -2.72760   -8.42761   -0.43350
       O    -3.25703   -8.99144    0.24013
      H1    -3.04642   -8.50703    1.07551
       H     1.07137   -8.72225    0.60844
       O     1.33799   -8.41049   -0.28275
      H1     2.30280   -8.39198   -0.27622
       H    -4.78171   -7.39202   -1.71905
       O    -5.12223   -8.30383   -1.84874
      H1    -4.75956   -8.68021   -1.01211
       H    -0.90558   -8.14478   -2.89625
       O    -0.28291   -8.25121   -3.70498
      H1    -0.81597   -8.46678   -4.43561
       H    -2.47205   -4.87884   -4.05464
       O    -2.40768   -5.39153   -4.85559
      H1    -2.10617   -4.74751   -5.55362
       H    -4.25275   -2.98694   -2.04405
       O    -3.71529   -3.54289   -2.60933
      H1    -3.05382   -2.92749   -3.06238
       H     0.17907   -4.82872    1.21935
       O     0.16377   -4.21382    0.49282
      H1     1.01454   -4.02609    0.09560
       H    -1.61674   -6.59534   -1.37577
       O    -1.50577   -7.57128   -1.41518
      H1    -0.76409   -7.72781   -0.91492
       H     0.34548   -9.61338   -2.71060
       O     0.47196  -10.26651   -1.98194
      H1     0.94781   -9.81887   -1.30194
       H    -3.83383   -5.42779   -1.09201
       O    -4.76208   -5.69132   -0.93765
      H1    -5.33815   -4.97408   -1.28378
       H    -1.44511   -4.54429   -0.39157
       O    -2.13491   -5.06681   -0.91829
      H1    -2.56807   -4.36186   -1.45685
       H    -0.73622   -5.49259    3.19585
       O    -0.28241   -6.02332    2.47316
      H1     0.55561   -6.33680    2.83945
       H    -4.73023   -5.28044    0.65607
       O    -4.87537   -5.17682    1.63570
      H1    -4.36556   -4.35786    1.91837

