39
frame 8 | Written by MDAnalysis XYZWriter (release 2.4.3)
       H    14.84892    6.91680   -6.67467
       O    13.89441    7.06375   -6.52053
      H1    13.81909    7.94472   -6.09685
       H    11.25910    5.99603   -7.05809
       O    10.77423    5.61734   -6.26656
      H1    11.36593    5.45686   -5.53445
       H    13.68763    8.02463   -8.02114
       O    13.87520    8.34334   -8.91674
      H1    13.25318    9.00855   -9.19429
       H    14.85508    3.20669   -5.80794
       O    14.57766    3.07623   -4.82930
      H1    13.89615    3.72601   -4.60170
       H    16.96702    6.62066   -5.72716
       O    16.74959    6.33915   -4.80995
      H1    16.94871    5.38530   -4.78409
       H    11.76884    4.85613   -3.36457
       O    12.39124    4.69960   -4.11807
      H1    13.13162    5.32808   -3.92045
       H    16.79321    6.45109   -8.32678
       O    16.77723    6.96046   -7.53257
      H1    17.54993    7.52880   -7.52268
       H    13.91286   10.18170   -6.55869
       O    13.97925    9.82471   -5.70546
      H1    13.08788    9.79326   -5.37411
       H    17.76072    9.07153   -3.02617
       O    18.31556    8.36948   -3.41390
      H1    17.76929    7.80281   -3.89101
       H    15.00991    3.02798   -8.11707
       O    15.95087    2.81367   -7.92295
      H1    16.11788    1.86980   -8.09972
       H    16.56923    4.11098   -9.19996
       O    16.76737    4.97670   -9.65121
      H1    16.29861    4.82830  -10.52562
       H    15.21274    6.31068   -3.56056
       O    14.39815    6.47383   -3.05169
      H1    14.20350    7.34639   -3.32052
       H    12.64676    6.63253   -9.16307
       O    12.00159    5.89847   -9.26345
      H1    12.53944    5.23192   -9.64748

