39
frame 8 | Written by MDAnalysis XYZWriter (release 2.4.3)
       H    10.93682    8.93176   11.18517
       O    11.33578    9.79039   11.42255
      H1    11.40414   10.27005   10.59772
       H    12.38284   11.54444    8.92760
       O    11.40271   11.58620    9.11806
      H1    11.27267   12.46730    9.41560
       H     9.49221    7.73555    6.02043
       O     8.98043    6.92206    6.29860
      H1     9.39237    6.18572    5.82331
       H    12.37621    7.50796    6.85118
       O    12.80357    8.18124    6.26085
      H1    11.99796    8.59383    5.85388
       H     8.00556    7.59195    7.71103
       O     7.50928    8.04857    8.39740
      H1     7.26300    8.88952    8.03460
       H    10.25916   10.06156    5.68043
       O    10.69926    9.35457    5.23846
      H1    10.21020    9.27189    4.41235
       H    10.55853   13.67917    4.91055
       O    10.66509   12.76379    4.76082
      H1    11.41086   12.53775    4.17188
       H     6.33496   11.56732   10.55212
       O     6.94343   10.84643   10.57236
      H1     7.71301   11.22188   10.98935
       H    14.90881   12.04608    8.90644
       O    14.22036   11.35620    8.78858
      H1    14.48003   11.08519    7.84629
       H     5.47949   12.68087    5.72258
       O     5.43914   12.73069    6.69010
      H1     6.20428   12.09320    6.88204
       H    10.26640   11.44802    7.49811
       O     9.70277   11.24389    6.73680
      H1     9.99138   11.90095    6.02965
       H     7.98960   11.21303    7.50149
       O     7.16518   11.06770    8.01473
      H1     7.39769   11.31560    8.95932
       H    10.71686   14.72307   11.00611
       O    10.76742   13.77192   10.86296
      H1    10.03463   13.24718   11.23800

