39
frame 9 | Written by MDAnalysis XYZWriter (release 2.4.3)
       H    -4.25275   -2.98694   -2.04405
       O    -3.71529   -3.54289   -2.60933
      H1    -3.05382   -2.92749   -3.06238
       H    -5.15203   -6.92504    3.96151
       O    -4.26605   -6.49231    3.77118
      H1    -4.45146   -5.99374    2.96762
       H    -4.29328    1.11760    1.59020
       O    -4.44818    0.50915    2.26433
      H1    -5.11561   -0.08752    1.91973
       H    -6.51924   -0.84366    4.19321
       O    -6.58353   -1.76457    3.93840
      H1    -7.25447   -1.81366    3.21752
       H    -4.61549   -1.31369   -0.70919
       O    -4.78450   -2.12432   -0.24046
      H1    -5.76418   -2.09876   -0.13979
       H    -3.83383   -5.42779   -1.09201
       O    -4.76208   -5.69132   -0.93765
      H1    -5.33815   -4.97408   -1.28378
       H    -7.60013   -2.79384   -0.53628
       O    -7.48391   -1.79227   -0.37841
      H1    -7.99356   -1.72929    0.41492
       H    -3.08492   -1.98004    6.03445
       O    -3.83961   -2.30720    5.46543
      H1    -4.47754   -1.59474    5.30850
       H    -6.51646   -5.19140    2.81115
       O    -7.32991   -5.41503    3.21649
      H1    -7.40458   -4.84511    3.97060
       H    -1.87364   -2.51195    2.08839
       O    -1.03090   -2.19629    1.71379
      H1    -0.71736   -3.03596    1.32893
       H    -1.29684   -0.39004    2.11208
       O    -1.48721    0.55535    2.36439
      H1    -2.45838    0.44725    2.41811
       H    -4.13130   -2.45664    3.16295
       O    -3.78635   -2.81875    2.41643
      H1    -4.31999   -2.49509    1.68285
       H    -4.73023   -5.28044    0.65607
       O    -4.87537   -5.17682    1.63570
      H1    -4.36556   -4.35786    1.91837

