39
frame 8 | Written by MDAnalysis XYZWriter (release 2.4.3)
       H     0.73182    0.77292   -5.58293
       O     0.54302    1.66909   -5.90545
      H1     0.02826    1.52968   -6.68764
       H     1.74783    0.95876    0.04009
       O     2.21515    1.74377    0.30999
      H1     2.85532    1.29471    0.89374
       H     0.21185    6.19621   -1.72704
       O     0.25513    5.30736   -2.10661
      H1    -0.05063    4.68583   -1.41067
       H     6.08823    6.25356   -3.00542
       O     5.72217    5.38941   -3.06892
      H1     5.13602    5.30724   -2.27184
       H     2.14299   -0.47865   -4.25265
       O     1.24957   -0.64654   -4.62579
      H1     1.29518   -1.58319   -4.96198
       H     2.80384    2.85017   -2.96843
       O     2.92325    1.96451   -2.56611
      H1     2.87505    2.21861   -1.65768
       H     3.49324    7.56932   -1.12293
       O     3.67674    7.44323   -2.05187
      H1     3.37758    6.54556   -2.28005
       H     5.26487    0.69921   -4.73230
       O     4.42084    0.25924   -4.72190
      H1     4.03422    0.74778   -3.99614
       H     0.17572    2.28413   -2.73301
       O    -0.39024    2.31286   -3.51728
      H1     0.05998    2.05468   -4.29457
       H     3.60497    1.03580   -6.03139
       O     3.20789    1.55394   -6.81006
      H1     2.29337    1.73280   -6.60674
       H     2.46461    4.51024   -4.16976
       O     2.72634    4.86800   -3.33013
      H1     1.89861    4.90379   -2.76636
       H     3.66312    5.13707    0.34538
       O     4.31475    5.16578   -0.35748
      H1     4.73684    6.01951   -0.16549
       H    -0.77018    3.80990   -4.32879
       O    -0.83552    4.65876   -4.74684
      H1    -0.62079    5.22814   -3.97796

