39
frame 10 | Written by MDAnalysis XYZWriter (release 2.4.3)
       H     1.37385  -16.24478  -10.55689
       O     1.01562  -17.18972  -10.52664
      H1     0.71347  -17.25487  -11.41741
       H     0.98854  -18.75897  -15.77064
       O     1.87158  -18.63694  -15.43567
      H1     2.14203  -19.53813  -15.19270
       H    -2.12521  -17.32318  -11.45318
       O    -2.64411  -17.79766  -10.72124
      H1    -2.22711  -17.52401   -9.89383
       H     0.11313  -14.10475  -15.00671
       O     0.43001  -14.92715  -15.37490
      H1     0.79138  -15.33186  -14.61771
       H     1.72750  -17.34147  -14.20770
       O     1.41002  -16.70215  -13.55513
      H1     2.19922  -16.17283  -13.31819
       H     3.52590  -19.84074  -11.99993
       O     4.02509  -19.04217  -12.17124
      H1     3.42783  -18.47477  -12.64545
       H    -1.58992  -13.99783  -10.35770
       O    -0.77864  -13.81241  -10.96491
      H1    -0.28439  -13.11978  -10.46722
       H     4.12842  -18.51761   -9.40957
       O     4.62487  -19.20520   -8.88604
      H1     4.68002  -18.90526   -7.97273
       H    -0.65971  -16.46353  -13.02479
       O    -1.50150  -16.28335  -12.65716
      H1    -1.36718  -15.43947  -12.22660
       H     3.67453  -15.55633  -14.70107
       O     3.75759  -15.52022  -13.70581
      H1     3.80488  -14.62101  -13.34969
       H     4.50702  -17.31740  -11.35112
       O     4.36748  -16.63163  -10.70914
      H1     3.62734  -16.13875  -11.06177
       H    -0.15996  -17.56500   -8.92414
       O    -0.90577  -17.73576   -8.37477
      H1    -1.19407  -18.61783   -8.56777
       H     2.61851  -13.81013  -10.42603
       O     2.13000  -14.56050  -10.85834
      H1     1.20338  -14.35023  -10.89744

