39
frame 10 | Written by MDAnalysis XYZWriter (release 2.4.3)
       H     7.95187   16.65947    2.30805
       O     7.98628   16.86375    3.24956
      H1     7.16609   17.37185    3.46655
       H     8.88658   14.65568   -0.39698
       O     8.91787   14.06264   -1.17086
      H1     9.36738   13.26951   -0.88955
       H    12.70233   15.37764    2.19863
       O    11.97216   15.59993    1.57737
      H1    12.18753   16.45742    1.19382
       H     8.96070   14.26804    5.29132
       O     9.39786   13.51974    4.91119
      H1    10.32854   13.66115    4.70570
       H    12.57656   14.40462    0.37946
       O    12.74897   14.08404   -0.58259
      H1    12.03434   14.58259   -1.02334
       H     8.16844   16.18680    6.41452
       O     8.80283   16.11517    5.73317
      H1     8.38315   16.38426    4.87047
       H    10.88879   18.10280    4.87303
       O    10.51447   18.27387    3.99936
      H1     9.88739   17.56243    3.80072
       H    11.00018   12.31044    0.40533
       O    10.07304   12.04762    0.47438
      H1     9.90707   11.33451   -0.16948
       H     6.73959   11.67309    1.86329
       O     6.02995   10.95911    1.72895
      H1     5.43536   11.34338    1.08486
       H     5.73447   13.90517   -1.24310
       O     6.35298   13.29945   -0.76378
      H1     7.22616   13.67582   -0.91610
       H    10.18947   15.31434    1.72125
       O     9.27080   15.15597    1.44592
      H1     8.98114   14.34593    1.86263
       H    12.42078   12.68371    4.10607
       O    11.61569   12.49045    3.57302
      H1    11.28216   11.64627    3.81343
       H     8.86270   12.36283    3.24722
       O     8.25505   12.25529    2.50864
      H1     8.77267   11.84344    1.81785

