39
frame 0 | Written by MDAnalysis XYZWriter (release 2.4.3)
       H   -17.78012  -14.87810   -9.72648
       O   -18.44531  -15.09949  -10.35276
      H1   -18.17179  -14.80809  -11.26440
       H   -18.55189  -11.85651  -10.67881
       O   -17.60416  -11.67769  -10.87829
      H1   -17.39639  -11.28168  -10.01199
       H   -12.70572  -11.35351  -13.17200
       O   -11.75836  -11.33279  -12.94533
      H1   -11.27648  -11.76631  -13.62665
       H   -14.09466   -9.35246  -10.74833
       O   -14.82940   -9.98949  -10.63524
      H1   -15.62674   -9.42365  -10.77848
       H   -16.53992  -11.97378  -16.54299
       O   -16.67010  -12.95616  -16.36861
      H1   -16.91560  -12.88021  -15.42328
       H   -14.57345  -10.24522  -13.87781
       O   -14.51235  -11.00493  -13.36812
      H1   -14.84235  -10.70501  -12.52801
       H   -17.21015  -14.66004  -13.21183
       O   -18.17751  -14.74838  -13.04961
      H1   -18.37374  -15.58806  -13.47784
       H   -13.58254  -13.51466  -16.07343
       O   -14.36314  -14.03441  -15.77087
      H1   -15.13981  -13.48846  -15.98728
       H   -11.74080  -11.88384  -11.29198
       O   -11.58319  -12.04929  -10.32017
      H1   -11.40373  -12.99179  -10.17499
       H   -15.01225  -12.73579  -13.25090
       O   -15.39180  -13.61549  -13.37361
      H1   -15.02891  -13.94436  -14.24585
       H   -17.37699  -10.80817  -14.30575
       O   -17.71014  -11.72947  -14.07901
      H1   -17.43304  -11.92009  -13.15127
       H   -14.20809  -16.56028  -13.10928
       O   -13.41519  -16.07616  -12.92164
      H1   -13.77325  -15.22497  -12.85217
       H   -14.17079  -14.36955   -9.47023
       O   -14.95958  -13.95125   -9.84562
      H1   -14.66193  -13.50767  -10.62841

