39
frame 10 | Written by MDAnalysis XYZWriter (release 2.4.3)
       H    -6.76673   -4.35386  -16.88021
       O    -7.41837   -4.92359  -16.50701
      H1    -8.08014   -4.37303  -16.09809
       H    -5.17765   -6.24384  -18.89728
       O    -5.59935   -6.37215  -18.05393
      H1    -4.90325   -6.93915  -17.61549
       H    -2.41617   -3.51995  -16.63420
       O    -1.85441   -4.11992  -16.22120
      H1    -1.54290   -3.81007  -15.34383
       H    -2.30174   -0.95896  -15.13668
       O    -2.97789   -1.68183  -15.04870
      H1    -3.78846   -1.16389  -15.10288
       H    -5.06162   -3.60838  -16.30168
       O    -5.41995   -3.32969  -17.21321
      H1    -4.69083   -3.20399  -17.81735
       H    -2.15634    0.97481  -18.87248
       O    -2.36214    0.04480  -18.96838
      H1    -2.56902   -0.19955  -19.88227
       H    -1.49883   -6.87067  -17.20464
       O    -1.85462   -6.34678  -17.90229
      H1    -2.24599   -5.62924  -17.43854
       H    -2.80468   -2.04127  -18.77349
       O    -3.11928   -2.94971  -18.54985
      H1    -2.74911   -3.52178  -19.24926
       H    -5.97592   -0.99284  -17.36738
       O    -5.67353   -0.12005  -17.04964
      H1    -6.08423   -0.08168  -16.14179
       H    -0.30839   -0.15372  -18.60692
       O     0.61396   -0.44974  -18.45912
      H1     0.50764   -1.29902  -18.09037
       H     0.62129   -5.90009  -19.92684
       O     0.21518   -5.29560  -19.28133
      H1    -0.55880   -5.79413  -19.01682
       H     0.32548   -1.69954  -16.06560
       O     0.32905   -2.55717  -16.58271
      H1    -0.51828   -2.92762  -16.44168
       H    -4.88413   -3.83585  -13.96069
       O    -4.63926   -4.30452  -14.73423
      H1    -3.73906   -3.94615  -14.95736

