39
frame 9 | Written by MDAnalysis XYZWriter (release 2.4.3)
       H    10.24177   13.00419   -6.84523
       O    11.12650   12.78755   -7.25494
      H1    11.11808   13.21421   -8.10508
       H    11.32349   17.78338   -8.33964
       O    11.71218   18.26036   -9.10030
      H1    12.25684   17.62794   -9.53916
       H     9.77624   16.34391  -10.06864
       O     9.22682   17.02765  -10.51890
      H1     9.79694   17.78088  -10.68553
       H     7.02206   19.33750   -4.64813
       O     6.42878   18.51281   -4.49214
      H1     6.32248   18.43206   -3.53344
       H    10.07574   19.27817   -4.09896
       O    10.58826   19.45813   -4.91655
      H1    11.46844   19.14453   -4.71191
       H     7.70792   15.97673  -10.17595
       O     7.06913   15.23816  -10.27863
      H1     7.23327   14.99719  -11.18351
       H     6.48720   18.12968  -10.19654
       O     7.13379   18.51269   -9.55628
      H1     7.95151   17.94281   -9.66500
       H    11.60249   14.78331   -9.95317
       O    10.82033   14.88832   -9.40041
      H1    11.20479   15.37727   -8.63832
       H    10.35000   14.41826   -5.24014
       O    10.91321   15.04748   -4.79236
      H1    10.86525   15.79071   -5.32163
       H    13.55295   18.65582   -5.89382
       O    13.15555   17.86975   -5.40585
      H1    12.86424   17.23226   -6.07734
       H     7.02621   17.86971   -7.66129
       O     7.21073   17.12926   -7.03978
      H1     7.12723   17.53519   -6.12393
       H    10.37644   18.19453   -6.25430
       O    10.14418   17.47338   -6.89478
      H1     9.14877   17.51193   -6.99662
       H    13.61014   14.97681   -6.94536
       O    12.70747   15.32258   -6.98963
      H1    12.15776   14.57125   -6.77351

