39
frame 9 | Written by MDAnalysis XYZWriter (release 2.4.3)
       H     7.64285   18.89776   13.59834
       O     8.33933   18.47097   13.06880
      H1     9.06593   18.71318   13.62750
       H    15.22096   18.67009   16.27866
       O    14.97110   19.42191   15.72805
      H1    14.41786   19.15964   15.02884
       H    12.95788   17.59637   15.88668
       O    13.13437   17.34494   14.95972
      H1    13.86980   16.71790   14.94540
       H    12.52400   12.84418   18.01589
       O    12.99729   13.37897   18.71435
      H1    13.58888   12.66888   19.12411
       H    11.30254   13.73566   16.21418
       O    11.44483   12.82291   16.47530
      H1    12.03306   12.53502   15.76931
       H    14.33795   14.97211   18.13402
       O    14.88451   15.68932   18.44214
      H1    14.17256   16.38924   18.63823
       H    12.98653   18.78214   18.12566
       O    12.80120   17.90717   17.76853
      H1    11.79693   17.84519   17.66555
       H    16.53659   17.71301   16.56645
       O    16.12898   17.84700   17.46378
      H1    15.62875   17.05371   17.65214
       H     7.68705   16.54322   15.92091
       O     7.86500   17.34306   16.44731
      H1     7.40078   17.16731   17.29301
       H    10.22577   16.29825   18.24190
       O    10.23304   17.24725   18.12367
      H1     9.46052   17.58923   17.59143
       H    14.55551   14.80813   14.05907
       O    14.72042   14.87560   15.01213
      H1    15.69181   14.87499   15.07435
       H     9.98270   15.95973   15.53905
       O    10.75869   15.46650   15.70444
      H1    11.46870   16.11724   15.43859
       H    10.91720   19.82961   15.20100
       O    10.86776   19.04337   14.61514
      H1    11.76816   18.84452   14.40108

