39
frame 9 | Written by MDAnalysis XYZWriter (release 2.4.3)
       H     5.61971   19.14165  -14.73101
       O     4.99198   18.39253  -14.42973
      H1     4.27604   18.34760  -15.04008
       H     6.27907   17.69221  -16.76482
       O     5.69434   17.78585  -17.50266
      H1     6.16520   18.57836  -17.93443
       H     9.02309   18.88845  -16.52971
       O     9.10848   19.31746  -15.63638
      H1     9.35118   20.32251  -15.87937
       H     7.90262   19.07566  -13.33511
       O     7.58499   18.57681  -12.55399
      H1     8.10038   19.06572  -11.91217
       H    13.16024   17.92007  -18.73060
       O    12.36743   17.42177  -18.77716
      H1    12.18689   17.51276  -19.70669
       H     8.94058   17.13368  -12.59549
       O     9.28885   16.54076  -13.27663
      H1     8.91242   15.67012  -13.08542
       H     8.36826   16.60787  -14.58576
       O     7.66062   16.60429  -15.32204
      H1     6.84418   16.21238  -15.09719
       H    10.51609   15.69860  -16.28472
       O     9.89553   15.63386  -17.02152
      H1     9.05021   15.87941  -16.54909
       H    12.99572   15.05899  -16.01346
       O    12.44916   15.86524  -15.95247
      H1    12.29776   16.18942  -16.88789
       H    12.20606   16.51514  -14.03579
       O    12.12391   16.47288  -13.10628
      H1    11.13712   16.38286  -13.05613
       H    10.38255   19.91263  -18.88488
       O     9.92918   19.19309  -18.50673
      H1    10.48212   18.45945  -18.72454
       H    10.57932   19.41196  -14.68859
       O    11.24200   19.42252  -13.98013
      H1    12.06499   19.22645  -14.41152
       H     8.04317   19.33186  -18.74660
       O     7.13871   19.68935  -18.75055
      H1     6.92318   19.50233  -19.69374

