39
frame 9 | Written by MDAnalysis XYZWriter (release 2.4.3)
       H    14.22568   -0.10380  -15.76247
       O    14.72774    0.43160  -16.46235
      H1    15.63259    0.54016  -16.14814
       H    16.23105   -4.91300  -11.38745
       O    15.64775   -5.61973  -11.76476
      H1    15.92729   -6.44641  -11.29359
       H    10.27355   -0.90169  -17.61017
       O    10.97427   -0.89548  -16.91917
      H1    10.78911   -1.61902  -16.33051
       H    14.95169   -5.21112  -13.50123
       O    14.69941   -4.98035  -14.37087
      H1    13.92172   -5.56228  -14.57324
       H    14.20360   -3.09127  -14.97772
       O    14.34698   -2.13286  -15.21001
      H1    15.15816   -2.19784  -15.72121
       H    10.89219   -2.48037  -12.01808
       O    11.35092   -2.57811  -12.83332
      H1    12.31289   -2.45308  -12.62445
       H    17.81976   -0.34390  -13.56777
       O    17.84623   -1.18779  -14.07668
      H1    18.54651   -1.76127  -13.74054
       H    14.30077   -2.51220  -10.68999
       O    14.38071   -2.63485   -9.71941
      H1    14.20475   -3.56614   -9.59697
       H    16.91479   -2.92081  -12.09662
       O    17.37756   -3.15344  -11.28208
      H1    17.16596   -2.48451  -10.60498
       H    12.90828    1.62652  -14.11135
       O    13.01082    1.29764  -13.19775
      H1    13.04262    2.14403  -12.66303
       H    10.44816   -2.60683  -14.27126
       O     9.90083   -2.51064  -15.11878
      H1     9.49546   -3.40491  -15.27898
       H    14.05984   -1.84941  -13.54578
       O    14.17146   -1.68449  -12.61033
      H1    14.31004   -0.77944  -12.55402
       H    11.56742    0.94603  -11.55134
       O    11.61687    0.83709  -10.60669
      H1    10.90989    1.45680  -10.35293

