39
frame 9 | Written by MDAnalysis XYZWriter (release 2.4.3)
       H    -4.76678   -3.07210  -11.80925
       O    -4.11796   -3.55754  -11.29535
      H1    -3.26950   -3.19237  -11.56189
       H    -6.32599    0.54780  -14.67433
       O    -5.37511    0.57813  -14.62831
      H1    -5.16745    1.43800  -14.21739
       H    -2.46117   -0.45915  -14.84576
       O    -2.83024   -1.29842  -14.62743
      H1    -3.62941   -1.20143  -14.08242
       H    -6.73234    0.67384  -11.28967
       O    -6.94406   -0.24902  -11.29691
      H1    -7.64971   -0.20814  -10.65196
       H    -6.84144   -2.57367  -13.36285
       O    -5.91935   -2.32933  -13.17472
      H1    -6.04046   -1.51030  -12.64447
       H    -9.19932    0.73234  -15.28404
       O    -8.69590    0.02155  -14.86380
      H1    -9.14691   -0.72017  -15.20548
       H    -5.83904   -1.31352  -17.31056
       O    -5.09764   -0.73340  -17.18772
      H1    -5.01684   -0.47726  -16.27657
       H    -9.67581   -0.00155  -13.33973
       O   -10.19017    0.26952  -12.57058
      H1   -10.00279    1.22756  -12.57527
       H    -9.24389   -3.76004  -13.78646
       O    -8.32517   -3.70846  -14.01858
      H1    -7.93935   -4.50190  -13.62296
       H    -5.54452   -0.98155  -10.25719
       O    -4.88018   -1.30272   -9.65467
      H1    -4.52402   -2.10558  -10.06464
       H    -5.26536   -3.29351  -14.56916
       O    -5.43790   -3.96569  -15.36979
      H1    -4.64054   -3.89780  -15.90323
       H    -6.18820   -5.09852  -14.40966
       O    -6.70793   -5.75216  -13.84689
      H1    -6.82686   -6.45240  -14.55473
       H    -5.87896    2.91369  -10.67638
       O    -5.83919    2.23703  -11.37563
      H1    -6.16255    2.73837  -12.16660

