39
frame 10 | Written by MDAnalysis XYZWriter (release 2.4.3)
       H   -10.94912    7.35355   12.74555
       O   -11.29913    6.84175   13.49003
      H1   -12.11332    7.15323   13.79259
       H   -13.65486   10.72287   11.62576
       O   -14.45024   10.34153   12.07741
      H1   -15.31788   10.64406   11.73913
       H   -12.91077   10.58839    6.49559
       O   -12.18222   10.10322    6.90535
      H1   -12.21819   10.09634    7.87473
       H   -12.09519    6.59004    8.25321
       O   -11.52373    5.99320    7.69074
      H1   -11.42578    6.62385    6.94357
       H   -15.13202    7.64850   10.88897
       O   -14.24916    8.07840   10.99399
      H1   -14.45370    8.96290   11.37894
       H   -16.32319    8.83345    7.87633
       O   -15.56849    8.91139    8.41578
      H1   -15.85975    8.88445    9.34076
       H    -9.40826    7.69543   10.92254
       O   -10.02431    8.12970   11.53583
      H1    -9.50876    8.71724   12.13469
       H   -10.44323   10.11966    6.22114
       O    -9.50625    9.94932    5.96488
      H1    -9.49546    9.75687    5.02740
       H   -12.35155    8.71178    5.80230
       O   -12.37674    7.97165    5.19322
      H1   -13.18268    7.53828    5.32716
       H   -10.13043    6.84813    8.63130
       O    -9.28618    6.61337    9.07902
      H1    -9.27998    5.67706    9.04736
       H   -12.69929    8.41330    9.90143
       O   -11.91076    8.56729    9.40647
      H1   -11.18450    8.55630   10.09081
       H    -9.68148   12.12673   10.97589
       O   -10.00848   11.97051   10.11724
      H1   -10.94227   11.82686   10.36274
       H   -13.09943   11.95398    9.77990
       O   -12.55718   11.28610   10.19211
      H1   -12.70824   10.43396    9.73575

