39
frame 1 | Written by MDAnalysis XYZWriter (release 2.4.3)
       H    -2.55135   14.03731    8.21264
       O    -3.23067   14.70757    8.10615
      H1    -3.09279   14.98754    7.11460
       H     0.31142    8.87221    6.63793
       O     0.25756    9.36715    7.49086
      H1     0.88492   10.07008    7.49809
       H     2.29125   14.68381    7.25489
       O     2.79693   15.23597    7.85373
      H1     2.59314   16.14748    7.68287
       H     3.13758   11.37870    7.73823
       O     2.25325   11.47711    8.16036
      H1     2.25840   11.27141    9.11833
       H    -1.65681   11.89698   11.17253
       O    -0.80101   12.36215   11.09068
      H1    -0.89841   12.72651   10.18907
       H     1.48340   13.26496    5.81744
       O     1.21376   13.49253    6.67959
      H1     1.40454   12.79234    7.31664
       H    -1.36571   12.27567    7.58066
       O    -0.96768   12.83170    8.29760
      H1    -0.50780   13.43766    7.77363
       H     1.33753   14.49981   10.66893
       O     2.30213   14.27809   10.52856
      H1     2.44379   14.74215    9.68584
       H    -1.64373   10.97412    4.96430
       O    -1.18677   11.16894    4.17291
      H1    -1.29753   10.29374    3.65712
       H     4.66061   12.02469    5.98125
       O     4.78294   12.12891    6.90276
      H1     5.58059   11.61667    7.03433
       H     5.13858   13.97065    6.44838
       O     5.14282   14.97367    6.51997
      H1     4.46559   15.12399    7.26061
       H     0.52620   11.77190    4.00760
       O     1.33593   12.32042    3.94449
      H1     0.97825   13.13318    3.46070
       H     2.73892   12.59202   10.89371
       O     2.94336   11.63088   10.94028
      H1     2.60506   11.24747   11.76250

