39
frame 10 | Written by MDAnalysis XYZWriter (release 2.4.3)
       H     7.74006  -18.11531   -5.06883
       O     6.81256  -18.24934   -5.39388
      H1     6.47770  -17.36977   -5.40747
       H    12.41112  -17.21166   -4.47083
       O    11.80780  -16.58580   -4.04002
      H1    11.68573  -15.90507   -4.72457
       H    14.68997  -17.24299   -6.44581
       O    13.78134  -17.62531   -6.19592
      H1    13.09076  -17.10992   -6.65328
       H     8.76002  -15.88831   -0.71532
       O     9.46668  -15.42736   -0.31592
      H1     9.30904  -15.55686    0.62673
       H     8.22598  -13.95376   -3.58360
       O     8.14842  -14.79104   -4.07152
      H1     8.41058  -14.54000   -4.95685
       H    12.09131  -18.12301   -0.69114
       O    11.95767  -18.98095   -0.23780
      H1    11.67702  -19.57555   -0.97912
       H     8.55172  -18.22564   -2.74136
       O     8.33902  -18.50859   -1.83383
      H1     7.55295  -17.89180   -1.78612
       H     6.38681  -15.97638   -3.22018
       O     6.47719  -16.64223   -2.52996
      H1     5.68081  -16.71347   -2.13370
       H    10.41476  -17.14750   -7.16009
       O    10.83202  -16.34536   -6.93330
      H1    10.15892  -15.65725   -6.95210
       H    10.29211  -17.09056   -4.15124
       O     9.33360  -17.36437   -4.01557
      H1     8.78400  -16.53378   -3.94998
       H    13.37725  -13.45052   -5.58855
       O    13.16626  -14.37474   -5.58812
      H1    13.73265  -14.66311   -4.82044
       H    11.97663  -16.46026   -2.31799
       O    12.50394  -16.49623   -1.41416
      H1    11.88773  -16.00937   -0.81544
       H     8.39204  -14.20641   -7.25520
       O     9.23861  -14.10823   -6.70043
      H1     9.60936  -13.29484   -7.12006

