39
frame 9 | Written by MDAnalysis XYZWriter (release 2.4.3)
       H   -16.26019  -18.86977   15.90432
       O   -16.12814  -18.57297   15.01127
      H1   -16.44285  -19.28995   14.43884
       H   -12.08867  -13.29661   13.30271
       O   -12.28053  -14.12771   12.79252
      H1   -13.22778  -14.28473   12.89408
       H   -15.86216  -18.21708   11.37111
       O   -16.47983  -17.67651   11.82741
      H1   -16.14074  -17.61538   12.73208
       H   -12.42710  -15.28420   15.96853
       O   -13.03729  -15.11366   16.68755
      H1   -12.48533  -15.22754   17.46915
       H   -11.74252  -17.10381   11.47588
       O   -11.55802  -17.81511   12.06487
      H1   -11.54827  -17.36729   12.90455
       H    -8.34263  -16.04196   15.44540
       O    -8.91214  -16.65894   14.91820
      H1    -8.27515  -17.32385   14.52172
       H   -13.52235  -17.47251    8.29469
       O   -13.91157  -17.03439    9.11150
      H1   -14.48988  -17.72959    9.46527
       H   -11.45140  -15.51905   13.52812
       O   -11.39320  -16.19935   14.22621
      H1   -10.36823  -16.33991   14.28056
       H   -13.39989  -17.21416   16.00611
       O   -12.86758  -18.00905   16.22425
      H1   -12.00401  -17.73038   16.40040
       H    -8.10242  -19.83413   11.10833
       O    -8.75122  -19.37877   11.63982
      H1    -8.87530  -18.46275   11.25638
       H   -10.65597  -16.89242    9.60304
       O   -11.39605  -16.29474    9.42953
      H1   -12.24322  -16.75160    9.39598
       H   -12.93785  -19.20020   14.40177
       O   -12.78573  -19.58365   13.52376
      H1   -12.35685  -18.82234   12.98837
       H   -14.80996  -15.93589   15.65568
       O   -15.08396  -16.16066   14.75743
      H1   -15.58876  -16.96892   14.89355

