39
frame 10 | Written by MDAnalysis XYZWriter (release 2.4.3)
       H     9.04717   -8.63607  -14.32962
       O     8.42629   -9.03911  -13.64477
      H1     8.66010   -9.99051  -13.83718
       H    10.02863   -5.25084  -17.82892
       O    10.63130   -5.99900  -17.94134
      H1     9.91953   -6.65166  -18.16158
       H     8.76676   -9.07376  -16.52069
       O     9.57679   -8.72226  -16.06708
      H1     9.43084   -7.73637  -15.93177
       H    11.63245   -8.49828  -16.18254
       O    12.54473   -8.24010  -16.26113
      H1    12.72925   -8.02916  -17.18798
       H     6.92317   -8.99238  -14.40144
       O     6.15262   -9.20065  -14.96557
      H1     5.45954   -9.49639  -14.45039
       H     6.95334   -9.40102  -16.55179
       O     7.51805   -9.53886  -17.34911
      H1     7.26731   -8.85795  -17.96423
       H    10.33586  -11.16926  -11.22173
       O    10.64806  -10.45851  -11.79920
      H1    10.88180  -10.92506  -12.60404
       H    10.93539  -11.68725  -15.20997
       O    11.76940  -11.80764  -14.72080
      H1    12.51041  -11.26191  -15.11607
       H    12.20615   -6.93598  -13.61836
       O    12.07205   -6.32783  -14.36289
      H1    12.35318   -6.86579  -15.08500
       H    10.33871   -5.95981  -14.72725
       O     9.47380   -6.20634  -14.97207
      H1     9.03575   -6.35326  -14.15906
       H     6.91827  -11.03945  -18.22471
       O     6.77924  -11.96653  -18.45822
      H1     6.22988  -12.36056  -17.79612
       H    10.44523   -9.73669  -17.48816
       O    10.89694  -10.20502  -18.25874
      H1    10.52270  -11.17108  -18.20621
       H     8.96451  -11.39974  -12.84287
       O     9.02884  -11.54286  -13.86013
      H1     8.32211  -12.26664  -13.95876

