39
frame 9 | Written by MDAnalysis XYZWriter (release 2.4.3)
       H    -7.74641   -7.59124    9.57648
       O    -8.68375   -7.73950    9.61388
      H1    -8.94238   -8.60494    9.90676
       H    -9.91130  -10.62047    9.90749
       O    -9.11490  -10.22164   10.25461
      H1    -8.50765  -10.61468    9.62177
       H    -9.01835  -10.66003   12.48816
       O    -8.48639  -11.07700   13.19254
      H1    -7.56577  -10.98000   12.89574
       H   -10.21534   -5.32614    8.27350
       O    -9.63933   -4.65202    7.92645
      H1    -9.28956   -4.98876    7.10917
       H    -7.73357   -4.32795    8.84665
       O    -7.10717   -3.89041    9.46924
      H1    -6.23701   -4.22942    9.17590
       H    -5.52860   -7.80517    9.66926
       O    -6.00909   -7.28349    8.96521
      H1    -5.69892   -7.72819    8.12490
       H   -11.10780   -7.44372   11.27288
       O   -11.39602   -7.91711   12.03028
      H1   -11.83942   -7.27578   12.63553
       H    -8.86993   -6.25613   12.78368
       O    -9.25516   -6.39172   13.71599
      H1    -9.63989   -5.57345   13.80742
       H   -10.88947   -7.09065    6.30852
       O   -11.70160   -6.50194    6.29671
      H1   -12.38405   -7.17441    6.20148
       H    -4.56794   -4.78358    7.84146
       O    -4.71709   -4.94476    8.80261
      H1    -5.23718   -5.77461    8.92293
       H    -5.48849   -9.14829   11.65565
       O    -5.15925   -8.29706   11.32278
      H1    -5.39191   -7.62799   11.94741
       H   -11.74062   -6.43593    7.92542
       O   -11.47481   -6.37127    8.83548
      H1   -12.18663   -5.76825    9.15832
       H    -8.97885   -7.51654    7.87478
       O    -8.82542   -7.26834    6.93346
      H1    -9.15527   -7.99999    6.45881

