39
frame 9 | Written by MDAnalysis XYZWriter (release 2.4.3)
       H   -14.76777  -13.44750   -0.50881
       O   -15.20070  -13.83423   -1.29442
      H1   -15.97491  -14.20316   -0.88183
       H   -16.95163  -20.19614   -4.85173
       O   -16.93021  -19.17732   -4.74684
      H1   -17.67883  -18.74574   -5.28486
       H   -17.82847  -15.55440   -7.26043
       O   -17.13891  -14.98777   -6.79591
      H1   -16.77729  -15.51937   -6.08102
       H   -17.73750  -14.59163   -3.78688
       O   -18.64361  -14.25635   -3.56225
      H1   -19.14686  -15.05202   -3.29141
       H   -15.74037  -18.12345   -5.50712
       O   -15.29538  -17.73150   -6.24359
      H1   -14.72637  -17.01185   -5.94435
       H   -17.91725  -12.40653   -3.22190
       O   -17.38755  -11.58933   -3.29440
      H1   -17.74603  -10.94520   -2.62905
       H   -17.75061  -15.71060   -0.41703
       O   -17.59214  -16.66812   -0.53669
      H1   -16.97225  -16.89657    0.15782
       H   -16.18875  -13.34318   -6.03713
       O   -15.81225  -12.60471   -5.60395
      H1   -16.53221  -12.18431   -5.13551
       H   -14.79443  -13.38512   -4.41478
       O   -14.29827  -14.04084   -3.84420
      H1   -14.58238  -13.99803   -2.90347
       H   -14.36625  -17.14514   -1.77302
       O   -14.83168  -17.58946   -2.47900
      H1   -14.75720  -18.48198   -2.11445
       H   -12.90323  -18.00232   -3.57547
       O   -12.18076  -17.63597   -4.15611
      H1   -12.62122  -17.10155   -4.79501
       H   -15.64422  -15.28812   -3.96678
       O   -16.47035  -15.75120   -4.13075
      H1   -16.19076  -16.55363   -3.63816
       H   -13.69178  -14.92383   -5.42173
       O   -13.62787  -15.76608   -5.91288
      H1   -13.24864  -15.53197   -6.82174

