42
frame 1 | Written by MDAnalysis XYZWriter (release 2.4.3)
       H     3.39101  -17.89053  -13.45237
       O     3.43066  -18.31912  -14.32154
      H1     3.49515  -19.24561  -14.11026
       H     4.37944  -16.36421  -10.07738
       O     4.94327  -16.99947  -10.54049
      H1     5.85630  -16.85221  -10.27430
       H     4.86328  -15.90145  -15.19586
       O     5.37057  -15.39144  -14.52830
      H1     6.03673  -16.03261  -14.18492
       H     7.09434  -14.19081  -11.99942
       O     6.38378  -13.62658  -12.37342
      H1     6.27033  -14.05675  -13.22243
       H     3.23897  -16.44688  -16.58592
       O     4.12291  -16.73810  -16.44805
      H1     3.97694  -17.54446  -15.85486
       H    -0.23311  -15.92936  -13.60313
       O     0.59625  -15.83813  -14.08687
      H1     0.68657  -16.70220  -14.52785
       H     1.39508  -14.91332  -16.47540
       O     1.81798  -15.29044  -17.25778
      H1     2.39378  -14.61538  -17.64660
       H     2.54928  -17.79505  -10.08898
       O     2.10387  -17.01671  -10.45561
      H1     2.59916  -16.70075  -11.25520
       H     0.64397  -13.79135  -14.67549
       O     1.29334  -13.16876  -15.03432
      H1     0.73132  -12.40002  -15.15476
       H     3.88029  -15.42065  -13.43645
       O     3.08171  -15.89379  -13.09910
      H1     2.36301  -15.81625  -13.74357
       H     2.42215  -13.55804  -11.16895
       O     2.53571  -13.55622  -10.22743
      H1     2.87853  -12.68182  -10.06571
       H     0.46424  -17.21515  -10.43104
       O    -0.46436  -16.98308  -10.22207
      H1    -0.74353  -17.78351   -9.74526
       H     2.48183  -12.75920  -13.59984
       O     3.02025  -12.35048  -12.93608
      H1     3.71122  -12.95198  -12.54213
       H     7.93849  -16.24419  -13.85888
       O     7.33287  -16.51263  -13.18296
      H1     7.35666  -17.46025  -13.22019

