42
frame 2 | Written by MDAnalysis XYZWriter (release 2.4.3)
       H    -7.68116    8.20047  -17.92304
       O    -8.66002    8.43468  -17.81861
      H1    -9.07162    8.01400  -17.03179
       H   -11.87858   11.08190  -14.29819
       O   -12.83951   10.78656  -14.44921
      H1   -13.27928   11.44879  -13.90583
       H   -11.83079    7.90742  -18.51433
       O   -11.08123    7.75508  -19.12104
      H1   -10.31115    7.83122  -18.53321
       H   -11.53713    6.01250  -19.07919
       O   -11.38412    5.08378  -19.23632
      H1   -11.81344    4.62918  -18.48586
       H    -7.78562   11.55144  -16.50315
       O    -8.22480   10.78928  -16.06576
      H1    -8.53614   10.28919  -16.78656
       H   -13.33329    7.28580  -16.68369
       O   -13.44584    7.96503  -17.35178
      H1   -13.26491    8.78209  -16.90476
       H   -10.98054    9.62204  -12.99979
       O   -11.21089    9.30364  -12.14551
      H1   -11.40128   10.12000  -11.61098
       H   -11.51193    6.26288  -13.24922
       O   -10.87468    5.67293  -12.82808
      H1   -10.19671    6.17541  -12.34982
       H    -7.23199    6.86632  -13.96140
       O    -7.98691    7.55547  -13.93160
      H1    -8.38085    7.43183  -13.05955
       H   -10.64148   11.17659  -16.58253
       O   -11.24199   10.52837  -17.03837
      H1   -10.88188    9.60738  -17.02911
       H    -9.91698    4.57188  -14.57074
       O    -9.81903    3.95621  -15.30937
      H1    -9.73109    3.05537  -14.84855
       H    -9.55289    7.79881  -14.86470
       O   -10.10934    7.95684  -15.67244
      H1   -10.92747    7.53483  -15.30051
       H   -12.58939    5.75765  -15.61793
       O   -12.54933    6.56018  -15.02815
      H1   -13.47977    6.65354  -14.67927
       H    -9.37101   11.09942  -14.67970
       O   -10.12998   11.30960  -14.10911
      H1    -9.75291   11.38109  -13.22243

