42
frame 1 | Written by MDAnalysis XYZWriter (release 2.4.3)
       H   -11.64600    8.37285  -18.90427
       O   -10.87852    8.26268  -19.47184
      H1   -10.08370    8.48085  -18.96988
       H   -17.92987    8.00925  -16.76497
       O   -17.93932    7.07595  -16.92228
      H1   -17.77382    6.84278  -17.87260
       H   -11.07873    5.82194  -19.68914
       O   -11.56629    5.00046  -19.77527
      H1   -11.76256    4.79371  -18.83503
       H   -13.74886    7.59664  -17.32491
       O   -12.98589    7.99754  -17.72501
      H1   -13.22351    8.95236  -17.72902
       H   -14.23124   10.68342  -19.68141
       O   -15.09289   10.42478  -19.29748
      H1   -15.04114    9.40984  -19.44252
       H   -16.79978    4.99855  -14.05916
       O   -15.94829    5.42647  -13.87048
      H1   -16.00555    6.26314  -14.35494
       H   -11.77401   11.22043  -16.42971
       O   -11.44155   10.69738  -17.17151
      H1   -11.26396    9.80906  -16.84459
       H   -12.01865   10.89857  -18.84319
       O   -12.52413   11.08757  -19.65689
      H1   -12.15578   11.95223  -19.98654
       H    -9.51923    8.22932  -15.30262
       O   -10.33726    8.49779  -15.67077
      H1   -10.96111    7.86624  -15.34645
       H   -13.32579    3.82365  -17.47846
       O   -12.38489    3.80303  -17.45965
      H1   -12.10388    2.95790  -17.84074
       H   -14.51379   10.89989  -17.12099
       O   -14.70534   10.42450  -16.34178
      H1   -13.89658   10.18945  -15.83492
       H   -11.78521    5.90112  -15.98166
       O   -12.02848    6.27324  -15.13887
      H1   -12.56421    5.55388  -14.80289
       H   -15.85195    6.29266  -16.80993
       O   -14.96276    6.65090  -16.72437
      H1   -14.93054    7.33864  -16.07667
       H   -14.99838    8.33126  -13.46468
       O   -15.51000    8.46578  -14.26248
      H1   -15.73493    9.41526  -14.19076

