42
frame 2 | Written by MDAnalysis XYZWriter (release 2.4.3)
       H    10.96925   10.29489  -15.54337
       O    11.33604   11.16822  -15.16930
      H1    12.23363   10.85467  -14.79572
       H     5.13335   13.71918  -15.52081
       O     5.80116   13.44813  -16.12683
      H1     6.29088   12.72698  -15.67789
       H     9.61310    8.38724  -17.22536
       O     9.45850    9.19309  -16.66047
      H1     9.35165    9.89676  -17.32785
       H     5.71818    9.32344  -14.84699
       O     5.76529    9.02804  -15.78698
      H1     6.20141    9.69901  -16.38427
       H     7.21574   14.79068  -16.11152
       O     8.07447   15.18145  -15.94031
      H1     8.18015   16.01617  -16.43166
       H     6.22473   13.47896  -17.84235
       O     6.74781   13.66609  -18.66361
      H1     7.65270   13.52034  -18.37018
       H     9.99606   13.70312  -19.07471
       O     9.63884   13.75916  -18.20472
      H1     9.39376   14.72377  -17.92283
       H     9.43171   10.84447  -19.73283
       O     9.97262   10.63339  -18.97615
      H1    10.69591   11.29972  -18.92934
       H    10.13046   11.85141  -13.78606
       O     9.33239   11.72900  -13.18942
      H1     9.44861   10.87004  -12.78666
       H     9.49394    8.63256  -14.80439
       O     9.80863    8.32884  -13.95830
      H1    10.65222    8.78981  -13.84198
       H     6.05123   11.42972  -17.79201
       O     6.63861   10.65258  -17.89009
      H1     6.74375   10.64005  -18.85368
       H     6.58406   11.04675  -13.92722
       O     5.71671   10.84955  -13.48517
      H1     5.93965   10.75553  -12.48931
       H    11.07198   13.27136  -17.21740
       O    11.95827   13.24824  -16.82282
      H1    11.95691   12.64415  -16.11823
       H     8.42564   11.71225  -14.82086
       O     7.60404   11.52931  -15.34195
      H1     7.80775   11.12034  -16.18799

