42
frame 1 | Written by MDAnalysis XYZWriter (release 2.4.3)
       H   -10.56908    5.93250   13.73452
       O   -11.05736    6.07382   14.53677
      H1   -11.19534    7.02730   14.64132
       H   -10.94733    8.31248    9.77606
       O   -10.81608    8.68379   10.70589
      H1   -11.32910    8.10350   11.34901
       H   -13.05900    3.34436   13.15331
       O   -13.23164    2.47163   13.57922
      H1   -12.49759    2.10996   13.99620
       H   -12.32067    8.47599   13.01915
       O   -12.79697    8.02213   12.33020
      H1   -12.91819    7.08412   12.64551
       H   -14.00333    5.36199   14.00391
       O   -13.47223    5.15469   13.21927
      H1   -12.54624    5.37415   13.55785
       H    -7.91547    2.51941   12.99146
       O    -8.83366    2.76881   12.98184
      H1    -9.20362    2.27726   12.21747
       H    -9.25695    7.65261   10.53024
       O    -8.49361    7.19636   10.18661
      H1    -7.79666    7.78442   10.20491
       H    -8.71795    5.74637   12.16308
       O    -9.54658    5.31197   12.43676
      H1    -9.46266    4.36792   12.64206
       H    -8.70414    9.07618   15.62335
       O    -8.57649    8.18414   15.96686
      H1    -9.38502    8.07773   16.48974
       H    -7.22972    7.22260   15.46936
       O    -6.41816    7.03096   14.95225
      H1    -5.66715    7.01225   15.54889
       H    -6.66506    5.84827   13.62159
       O    -6.73767    5.02817   13.06456
      H1    -5.99492    5.13337   12.48100
       H    -9.72138    4.73936   10.81440
       O    -9.74960    4.64534    9.84935
      H1    -9.67652    5.58724    9.60137
       H   -12.19254    9.09164   15.09375
       O   -11.36868    8.82672   14.57482
      H1   -10.75334    9.47510   14.93048
       H   -10.51634    5.52821   17.68691
       O   -10.21499    6.30780   17.24127
      H1   -10.37035    6.06209   16.30951

