42
frame 1 | Written by MDAnalysis XYZWriter (release 2.4.3)
       H   -12.36427   -5.21067  -10.81334
       O   -13.01663   -4.69892  -10.23300
      H1   -12.50477   -4.08422   -9.63036
       H   -13.22333   -8.92572  -10.12056
       O   -13.55032   -9.31295  -10.93684
      H1   -14.50709   -9.35038  -10.90862
       H   -14.44210   -6.07105   -3.31563
       O   -15.36230   -5.97219   -3.72554
      H1   -15.30338   -6.49189   -4.55809
       H   -15.67514   -3.96137  -10.96244
       O   -16.18834   -4.66763  -10.53126
      H1   -16.78512   -4.14254   -9.98657
       H   -14.55841   -2.66007   -5.60380
       O   -14.78311   -2.74528   -6.52910
      H1   -14.57758   -1.89408   -6.98735
       H   -15.51614   -5.61628   -7.26881
       O   -16.14227   -5.15790   -6.70083
      H1   -15.87360   -4.20557   -6.66721
       H   -12.29986   -8.81803   -8.26862
       O   -12.01853   -8.09762   -8.82727
      H1   -12.85365   -7.69739   -9.03276
       H   -10.09678   -6.38940   -7.48836
       O   -10.16863   -7.27493   -7.12449
      H1   -10.75027   -7.72372   -7.72062
       H   -11.34048   -7.36675  -10.58112
       O   -11.36279   -6.71286  -11.29198
      H1   -11.56403   -7.12136  -12.10779
       H   -16.12906   -8.00193   -5.89860
       O   -15.16348   -7.98481   -5.84278
      H1   -14.99802   -8.12336   -6.80581
       H   -14.35191   -6.14858   -9.30458
       O   -14.31921   -6.59788   -8.47700
      H1   -13.78460   -6.01184   -7.91595
       H   -12.43812   -4.43883   -4.79950
       O   -12.16672   -3.99271   -3.98463
      H1   -12.88354   -3.34777   -3.78444
       H   -11.33121   -2.64347   -8.79854
       O   -12.26667   -2.78662   -8.46358
      H1   -12.90457   -2.23893   -8.97861
       H   -12.55089   -4.17410   -6.92179
       O   -12.58683   -5.07905   -6.60099
      H1   -11.70289   -5.43813   -6.90485

