42
frame 1 | Written by MDAnalysis XYZWriter (release 2.4.3)
       H    16.82571  -17.73494   19.87603
       O    15.91389  -17.94627   19.68996
      H1    15.64750  -17.40603   18.91504
       H    19.16708  -14.32755   16.93088
       O    18.93681  -15.25362   16.70913
      H1    18.84586  -15.83687   17.47551
       H    13.44503  -17.46053   15.03475
       O    13.31428  -17.86911   15.89214
      H1    12.48466  -17.53808   16.33072
       H    18.50934  -18.20007   17.28216
       O    18.81532  -17.73564   18.09812
      H1    19.11844  -18.47930   18.61054
       H    15.81138  -16.93008   12.71696
       O    16.42948  -17.11086   11.97622
      H1    17.34740  -16.87252   12.23495
       H    17.28986  -17.39702   15.10014
       O    17.90182  -18.16102   15.27833
      H1    17.38292  -18.98731   15.34102
       H    19.36603  -15.38860   13.55469
       O    19.45847  -14.60786   14.10066
      H1    19.20413  -14.91860   14.98047
       H    15.04673  -14.75620   14.13647
       O    14.19967  -14.35423   13.96423
      H1    14.43118  -13.55854   13.35370
       H    14.34469  -16.54613   11.01597
       O    14.14968  -15.96328   10.18925
      H1    15.06260  -15.83975    9.83022
       H    12.89321  -17.38900   12.56791
       O    13.69312  -17.05324   12.89341
      H1    13.66110  -16.12218   12.99661
       H    17.49017  -14.82695   10.01403
       O    16.88119  -15.42853    9.66230
      H1    16.91409  -16.12817   10.32377
       H    17.33614  -15.29365   15.40857
       O    16.56483  -15.74238   15.00714
      H1    16.00274  -15.83661   15.79154
       H    19.79263  -16.46893   11.75410
       O    19.11286  -16.63107   12.40315
      H1    19.37651  -17.48125   12.81733
       H    14.50402  -16.93751   16.85436
       O    15.12376  -16.45564   17.36609
      H1    14.71895  -15.65062   17.67186

