42
frame 2 | Written by MDAnalysis XYZWriter (release 2.4.3)
       H   -14.93123   -5.75828   10.02260
       O   -15.87593   -6.01587   10.18879
      H1   -16.36393   -5.26374    9.84217
       H   -17.11967   -4.79915   13.23553
       O   -16.40026   -4.34604   13.65898
      H1   -16.67898   -3.86402   14.45915
       H   -19.45823   -5.49914   12.11218
       O   -18.95535   -4.66923   12.42198
      H1   -19.53803   -3.92722   12.36122
       H   -14.52764   -7.79629    8.48773
       O   -15.23239   -8.26871    8.94098
      H1   -15.70711   -7.63384    9.43553
       H   -16.58161   -2.82975   12.46249
       O   -16.89509   -1.96069   12.12955
      H1   -17.81608   -1.80557   12.42690
       H   -17.36022   -7.40734   10.94260
       O   -17.75585   -8.28174   10.88912
      H1   -18.69608   -8.12658   10.63900
       H   -14.15337   -3.99490    9.44644
       O   -13.58985   -4.79758    9.25734
      H1   -13.98385   -5.02836    8.39483
       H   -16.90031    0.84476    9.30036
       O   -16.73489    0.29832   10.04872
      H1   -16.67978   -0.63050    9.75108
       H   -17.17620   -1.18946    7.99363
       O   -16.49091   -1.74522    8.36433
      H1   -15.66324   -1.24022    8.33990
       H   -13.92521   -2.06778   11.22191
       O   -14.51740   -2.13029   10.44895
      H1   -15.38002   -2.05012   10.88940
       H   -19.57904   -2.15420    7.71729
       O   -19.17789   -1.26418    7.58972
      H1   -18.78259   -1.32930    6.67140
       H   -18.39884   -4.37726    9.66056
       O   -17.66648   -4.43287    9.03407
      H1   -17.51872   -3.50198    8.90462
       H   -16.46932   -5.66556    5.62424
       O   -17.41635   -5.92331    5.49188
      H1   -17.39504   -6.68269    6.09338
       H   -18.91879   -5.23404    6.35959
       O   -19.85723   -5.44611    6.58044
      H1   -20.34149   -5.58269    5.72867

