42
frame 1 | Written by MDAnalysis XYZWriter (release 2.4.3)
       H    -0.66206  -17.82393   18.95503
       O     0.31333  -17.56523   18.98866
      H1     0.80608  -18.23446   18.49507
       H    -1.66782  -15.78394   17.29562
       O    -2.56827  -16.23846   17.27732
      H1    -2.68708  -16.51440   16.39331
       H    -0.43568  -12.96485   18.22294
       O    -0.84105  -12.10746   18.21558
      H1    -0.86158  -11.84813   17.33204
       H     3.49094  -11.23107   14.63505
       O     4.20287  -11.03984   13.99285
      H1     3.97866  -11.34163   13.12140
       H     0.49545  -11.75341   13.60847
       O     1.36901  -11.73022   13.12285
      H1     1.58286  -12.69860   13.21830
       H    -0.06407  -15.57573   18.70260
       O    -0.26841  -14.93164   17.98136
      H1     0.52169  -14.79250   17.47497
       H     2.37185  -10.53524   16.77082
       O     2.72252  -11.29055   16.22179
      H1     3.41764  -11.72174   16.70037
       H     2.58221  -13.15832   18.73299
       O     3.32207  -12.57148   18.95124
      H1     2.85778  -11.93767   19.49980
       H    -0.95876  -13.88536   12.95469
       O    -0.68617  -14.83287   12.98557
      H1    -0.78325  -15.26988   12.12286
       H     2.55404  -14.93458   12.85866
       O     1.99208  -14.36724   13.35131
      H1     1.10414  -14.68196   13.27746
       H     2.80558  -17.65637   15.79325
       O     2.58393  -17.49628   14.85964
      H1     3.12459  -16.77877   14.51716
       H     4.92068  -14.23873   15.25291
       O     4.78056  -14.49858   16.16927
      H1     3.83668  -14.52253   16.17077
       H     7.05891  -13.41854   17.83892
       O     6.57388  -14.25505   17.98310
      H1     5.70234  -14.06619   17.51562
       H     1.58348  -14.88770   15.96483
       O     1.86084  -14.22514   16.60159
      H1     1.98280  -13.38107   16.06808

