42
frame 0 | Written by MDAnalysis XYZWriter (release 2.4.3)
       H     4.98656   11.77060   18.47242
       O     5.77006   11.36696   18.07269
      H1     5.98444   10.56027   18.55588
       H     6.90092   12.40470   17.05649
       O     7.47168   13.06508   16.66278
      H1     8.25667   12.52809   16.41986
       H    10.93400    6.59155   17.34240
       O    10.57839    7.50534   17.31347
      H1    11.19037    8.12175   17.61496
       H    11.95024   13.12714   16.09568
       O    11.85314   12.55766   16.91466
      H1    11.37601   13.10495   17.50987
       H    14.06497   14.40263   19.35401
       O    13.35219   14.29807   19.96603
      H1    13.11157   13.34662   19.91307
       H    10.45060   11.56607   16.63336
       O     9.75873   10.91024   16.90347
      H1     9.68974   10.32775   16.15768
       H    10.94046    9.14672   13.73583
       O    11.32444    9.29454   12.87373
      H1    11.19773    8.43652   12.41696
       H     9.65488    8.20643   15.77768
       O     9.42608    8.76472   15.05685
      H1     8.61439    8.47831   14.61312
       H    11.71741   14.76363   18.68795
       O    10.80523   14.47882   18.70206
      H1    10.30994   15.21898   18.29993
       H    10.24376   10.44904   18.52938
       O    10.38540    9.91773   19.33197
      H1    11.11485   10.37631   19.81559
       H     7.88662    6.45920   18.65838
       O     8.47550    7.07099   19.08699
      H1     9.20722    7.17739   18.47400
       H     7.77553    8.50237   19.52794
       O     7.66120    9.47696   19.73198
      H1     8.60499    9.79398   19.64590
       H    15.61769    9.91615   18.67153
       O    15.07083   10.05966   19.42513
      H1    15.53570   10.33828   20.23906
       H    12.52112    9.48133   17.05086
       O    13.11922    8.81162   17.32872
      H1    13.59140    9.13015   18.09473

