42
frame 1 | Written by MDAnalysis XYZWriter (release 2.4.3)
       H    -2.38794   18.08684   -3.45813
       O    -2.57694   17.81131   -2.54773
      H1    -2.23548   18.55270   -2.02853
       H    -0.13931   15.64382   -2.67453
       O    -0.84662   15.75213   -2.00094
      H1    -1.48056   16.42963   -2.29427
       H    -2.26249   18.95298   -5.40788
       O    -1.54896   18.47571   -4.87835
      H1    -0.86830   19.13336   -4.65847
       H    -8.41327   17.59489   -2.15759
       O    -7.87924   16.78955   -2.05454
      H1    -8.38544   16.07166   -2.41029
       H    -4.41194   15.81213   -5.41387
       O    -5.07633   16.50663   -5.54185
      H1    -5.17667   16.85995   -4.59494
       H    -7.31877   14.43599   -5.60032
       O    -7.54781   15.25591   -6.05213
      H1    -6.81756   15.85658   -5.85533
       H    -1.28128   17.11451    0.65927
       O    -0.54791   17.32361    0.08407
      H1    -0.55317   16.66766   -0.61992
       H    -1.23348   19.12239   -0.02563
       O    -1.88848   19.71918   -0.43170
      H1    -2.38901   20.14550    0.28668
       H    -6.57973   17.78917    1.78703
       O    -5.73903   17.96421    2.35060
      H1    -5.35792   18.71773    1.82949
       H    -4.66136   17.85298   -2.89042
       O    -5.53837   17.98122   -3.28163
      H1    -6.18123   17.34991   -2.89259
       H    -1.10418   16.60471   -5.90140
       O    -0.61087   15.81702   -6.27873
      H1    -1.25929   15.11439   -6.41085
       H    -4.48971   19.63816   -5.54290
       O    -3.92133   19.09600   -6.03341
      H1    -4.22397   18.23931   -5.74234
       H    -7.78104   17.77227   -0.03936
       O    -7.97857   17.85827    0.90387
      H1    -8.48106   18.69914    0.97959
       H    -3.49383   13.60812   -5.26689
       O    -2.79352   14.33679   -5.36792
      H1    -2.21011   14.34946   -4.57990

