42
frame 1 | Written by MDAnalysis XYZWriter (release 2.4.3)
       H   -16.56391  -11.22196   -1.18077
       O   -16.40218  -10.51613   -1.81254
      H1   -16.44487  -10.94657   -2.67538
       H   -16.49266   -6.59174    1.25557
       O   -15.95502   -7.27356    0.76349
      H1   -16.58611   -7.87035    0.32764
       H   -18.83256  -11.25448    2.42266
       O   -19.34630  -11.06115    1.61787
      H1   -19.30937  -10.07479    1.39897
       H   -15.17054  -15.17831    0.15847
       O   -14.68370  -15.36782    1.00203
      H1   -15.26484  -15.82796    1.59672
       H   -17.92080  -11.87675    0.78570
       O   -17.06973  -12.22776    0.41061
      H1   -16.48048  -12.36484    1.15305
       H   -13.17865  -10.23356   -5.03153
       O   -13.78942   -9.80580   -4.37821
      H1   -14.40095   -9.32976   -4.98586
       H   -18.12946  -11.01777   -5.09405
       O   -17.66387  -11.05379   -4.26221
      H1   -18.37943  -10.99701   -3.55340
       H   -17.49935   -9.29663   -1.01106
       O   -18.19589   -8.74316   -0.59323
      H1   -17.99620   -7.92357   -1.05505
       H   -14.49963  -10.11197    2.47340
       O   -13.96690  -10.90912    2.21992
      H1   -13.03234  -10.62403    2.40025
       H   -14.27739  -10.24086   -1.53087
       O   -13.38264  -10.29510   -1.37329
      H1   -13.29094  -10.93990   -0.62323
       H   -17.75451  -14.56105   -1.51951
       O   -17.43332  -14.61011   -0.61642
      H1   -17.25551  -13.68895   -0.41203
       H   -14.99616  -11.90146   -5.48087
       O   -15.48612  -12.74537   -5.41186
      H1   -16.32954  -12.37819   -4.99833
       H   -12.68068  -14.05489   -0.70607
       O   -12.91945  -13.50445    0.07386
      H1   -13.52541  -14.06152    0.51412
       H   -14.33553  -14.72676   -2.88484
       O   -15.12984  -15.18071   -3.18205
      H1   -15.18254  -15.94069   -2.54318

