42
frame 1 | Written by MDAnalysis XYZWriter (release 2.4.3)
       H   -10.83691   10.47465    0.97094
       O   -11.33923   10.51172    1.79169
      H1   -12.15209   10.84554    1.43196
       H   -10.48648    6.40105    4.93345
       O    -9.63900    6.00883    5.19750
      H1    -9.57004    6.32861    6.10493
       H   -11.86770    8.78646    8.14841
       O   -11.19099    8.12937    8.14189
      H1   -11.65820    7.28253    8.07382
       H   -13.52522   12.17965    0.05161
       O   -13.64301   11.65494    0.84289
      H1   -13.90163   10.76961    0.56900
       H   -12.43023    7.51814    4.21126
       O   -12.24973    6.66011    4.60510
      H1   -13.01922    6.29052    4.94455
       H   -13.51711    8.39128    0.44945
       O   -14.15436    9.06004    0.12357
      H1   -15.03193    8.67915    0.07721
       H   -12.41462    8.11897    2.24903
       O   -12.51262    7.43341    1.61684
      H1   -11.70745    7.45460    0.99540
       H   -11.29569   11.98223    3.24168
       O   -11.29449   12.51813    4.04397
      H1   -10.78697   11.96553    4.71302
       H   -15.06304   11.89768    5.80226
       O   -15.63393   12.66470    5.92098
      H1   -16.53393   12.36439    5.91031
       H   -14.11438    6.73635    2.37954
       O   -14.97653    6.33769    2.27937
      H1   -14.87815    6.06970    1.32642
       H   -12.83821    9.71658    4.53945
       O   -12.59497    9.17452    3.76379
      H1   -12.14662    9.77824    3.14520
       H   -13.00913   11.94473    5.54919
       O   -13.45980   11.07914    5.74074
      H1   -13.41245   11.07726    6.72858
       H   -10.30885   10.98170    6.98764
       O   -10.12331   10.79944    6.06139
      H1   -10.29806    9.83174    6.12227
       H   -14.38310    6.82963    7.86309
       O   -14.11376    7.71079    7.55081
      H1   -14.98003    8.21822    7.59466

