42
frame 1 | Written by MDAnalysis XYZWriter (release 2.4.3)
       H   -11.86878   -7.25439   17.44458
       O   -12.81271   -7.50706   17.67281
      H1   -12.83068   -7.31971   18.63798
       H   -11.30820   -9.83185   17.24006
       O   -11.78466  -10.31601   17.95775
      H1   -12.44388   -9.62196   18.18244
       H   -16.76404   -5.93955   13.11923
       O   -16.14173   -5.20353   13.19357
      H1   -16.15909   -4.74328   14.04035
       H    -9.43103   -7.00779   18.43348
       O    -9.85997   -6.08958   18.51476
      H1    -9.20130   -5.49564   18.93858
       H   -12.06740   -7.83583   13.33313
       O   -12.54149   -7.63440   14.11327
      H1   -13.03643   -6.79053   13.92981
       H   -15.28028   -6.73926   18.61366
       O   -16.05500   -7.26633   18.37608
      H1   -16.80160   -6.63160   18.57275
       H   -13.76608   -6.16193   16.89460
       O   -14.26738   -5.47175   16.49625
      H1   -15.01091   -5.98340   16.10236
       H   -16.87943   -7.03455   15.01198
       O   -16.66528   -6.39465   15.71514
      H1   -16.54177   -6.86152   16.54910
       H   -16.31654  -10.32689   17.53084
       O   -15.70872  -10.03517   18.28722
      H1   -15.85431   -9.10574   18.45881
       H   -16.20200   -2.75555   16.10411
       O   -16.48384   -3.00575   15.22225
      H1   -17.41710   -3.09739   15.32597
       H   -10.18207   -5.88149   16.43743
       O   -10.25158   -5.93941   15.47579
      H1   -11.20857   -6.07809   15.43423
       H   -14.58287   -3.80469   17.30932
       O   -14.91883   -3.00871   17.80476
      H1   -14.12538   -2.43141   17.83230
       H   -13.95414   -4.98097   14.77067
       O   -13.69546   -5.14990   13.84676
      H1   -14.55947   -5.26191   13.40485
       H   -14.46694  -10.26187   13.02489
       O   -14.51196   -9.43019   13.56316
      H1   -13.74430   -8.79206   13.55329

