42
frame 1 | Written by MDAnalysis XYZWriter (release 2.4.3)
       H     7.97019    5.11754   -8.91606
       O     8.86923    5.04474   -8.54920
      H1     8.84994    4.25578   -7.97106
       H     9.57358    7.40851  -11.20187
       O     9.65873    8.01550  -10.49759
      H1     9.96299    7.46150   -9.74861
       H    12.03365   10.67610   -9.98034
       O    12.08277   11.46400   -9.35630
      H1    11.46400   11.20129   -8.64325
       H    12.07767    9.60304  -12.21403
       O    11.59332    9.81499  -11.40358
      H1    11.00358    9.10812  -11.16029
       H     9.53426    5.88510  -13.49680
       O     9.69247    6.62005  -12.90504
      H1     9.58926    7.39367  -13.47858
       H     6.49197    6.40733   -9.24070
       O     6.66662    5.64597   -9.87944
      H1     6.90000    6.03138  -10.76815
       H    10.08116    8.08858   -7.46311
       O    10.47862    7.36023   -7.97949
      H1     9.86392    6.59786   -7.93491
       H     9.07745    3.86253  -11.89474
       O     8.75320    3.21127  -11.26767
      H1     8.74381    3.73480  -10.40186
       H     8.53804    7.77578   -5.71041
       O     7.96230    8.40748   -6.17582
      H1     7.38753    7.92954   -6.77003
       H    11.50269    6.56615  -12.60773
       O    12.45038    6.52000  -12.38533
      H1    12.68201    6.99071  -11.56195
       H     8.58139    9.57891  -10.90053
       O     8.21669   10.24289  -11.51822
      H1     7.88097   10.99518  -10.99188
       H     7.76535    6.36898  -12.78123
       O     6.86899    6.11278  -12.50432
      H1     6.42498    6.95544  -12.20648
       H    12.62706    4.93616   -7.86322
       O    11.88855    4.39913   -7.56950
      H1    11.52228    4.17588   -8.40869
       H    12.14026    7.40288   -9.18147
       O    12.91360    7.32310   -9.78735
      H1    13.55700    6.85447   -9.28002

