42
frame 2 | Written by MDAnalysis XYZWriter (release 2.4.3)
       H     5.34850   -0.58112    4.15992
       O     5.27737   -0.68927    3.20927
      H1     5.81233    0.08124    2.98577
       H     6.44551    3.01040    5.04218
       O     6.88795    2.19109    4.70308
      H1     7.05206    1.64104    5.50055
       H     7.56170   -2.42683   11.05676
       O     6.91391   -1.99640   10.46650
      H1     6.53451   -2.77680   10.01198
       H     3.23120   -1.90159    3.93629
       O     2.59232   -1.24283    4.23676
      H1     3.11000   -0.44202    4.31642
       H     9.46938   -1.24218    2.83269
       O     8.89743   -0.98831    3.50317
      H1     8.08094   -0.73257    3.01639
       H     2.32757   -0.69367    9.97722
       O     2.33420   -0.19360    9.17450
      H1     3.25997   -0.04085    8.92805
       H     6.76399   -0.46740    6.50013
       O     6.52711    0.35262    6.92963
      H1     7.00637    0.36266    7.76609
       H     8.70200   -0.63062    8.34676
       O     8.17849   -0.08315    8.97063
      H1     7.80646   -0.75340    9.56759
       H     4.85129    1.00082    7.23255
       O     3.97401    1.40082    7.35182
      H1     4.04413    2.21468    7.85428
       H    11.17479   -1.02684    7.48997
       O    10.26151   -0.86888    7.16560
      H1    10.12290   -1.74439    6.78959
       H     6.52275   -2.38261    4.92626
       O     7.02111   -1.85377    5.52884
      H1     7.83676   -1.74828    5.04556
       H     5.84053   -0.41229   10.74619
       O     5.25674    0.34230   10.54067
      H1     4.42024    0.32200   11.10507
       H     3.12399    1.77814    5.81587
       O     2.84808    1.92901    4.91448
      H1     3.43336    2.63497    4.64288
       H     8.09016    3.55020    9.96714
       O     8.60221    2.80697    9.69362
      H1     8.10707    2.11031    9.29436

