42
frame 1 | Written by MDAnalysis XYZWriter (release 2.4.3)
       H    11.09370   16.76950   -6.11005
       O    11.49880   16.22779   -6.80464
      H1    11.86531   15.56196   -6.22243
       H     9.73178   11.46349    1.32768
       O    10.32138   11.14723    0.63084
      H1    10.26004   11.80097   -0.07959
       H    11.81938   18.43946   -1.51313
       O    11.66715   18.49800   -2.47736
      H1    12.57232   18.58749   -2.80775
       H    12.73695   11.09684   -2.94938
       O    12.28511   10.34012   -3.35208
      H1    11.56161   10.19022   -2.69556
       H     7.91810   16.15383   -1.33202
       O     8.45457   15.71014   -0.68878
      H1     8.19562   16.17290    0.13028
       H     8.94500   12.88278   -5.04976
       O     9.87426   12.63572   -5.33324
      H1    10.14661   13.40288   -5.83601
       H    11.93104   16.11151   -1.03888
       O    12.08738   16.64239   -0.26114
      H1    12.21135   15.97747    0.40110
       H    11.63640   15.62267   -3.17809
       O    12.14353   15.10499   -2.49116
      H1    11.48362   14.43984   -2.17099
       H    11.17376   13.66976   -0.31177
       O    10.42329   13.48679   -0.84082
      H1     9.76627   14.16012   -0.57748
       H    14.39110   16.59621   -5.52440
       O    14.56956   16.27303   -4.66482
      H1    13.80495   15.70837   -4.39536
       H    10.61329   17.42853   -3.56005
       O    10.42780   16.66732   -4.07213
      H1     9.44518   16.72076   -4.29259
       H    13.30796   13.56348   -2.54740
       O    13.64712   12.88936   -1.98698
      H1    13.18090   12.95139   -1.13039
       H    13.64538   13.26318    0.56637
       O    12.66655   13.21876    0.57684
      H1    12.48791   12.54359    1.22519
       H    13.22021   13.31348   -5.12006
       O    12.73201   14.13014   -5.03271
      H1    12.12319   13.99593   -4.32030

