42
frame 3 | Written by MDAnalysis XYZWriter (release 2.4.3)
       H   -12.50889  -17.63295  -16.05942
       O   -12.12436  -17.59310  -16.96254
      H1   -11.40173  -18.24164  -16.90155
       H   -15.23679  -14.47647  -17.62857
       O   -15.34000  -14.98454  -18.42605
      H1   -14.48237  -15.24536  -18.81218
       H   -13.73501  -18.48023  -18.64293
       O   -13.52006  -19.03085  -19.36588
      H1   -13.78859  -18.50867  -20.22426
       H   -12.66577  -16.24421  -13.24980
       O   -11.74670  -15.85329  -13.15921
      H1   -11.36935  -15.40856  -13.89942
       H   -16.96062  -12.33585  -16.24568
       O   -17.43493  -12.98045  -15.64456
      H1   -17.50346  -12.36731  -14.91812
       H   -15.03192  -18.41712  -15.73302
       O   -14.56646  -18.86694  -14.97419
      H1   -14.13678  -19.68166  -15.31320
       H   -12.80227  -16.32370  -20.32590
       O   -13.00306  -15.80541  -19.52300
      H1   -12.60308  -16.19526  -18.77443
       H   -16.99016  -18.39974  -18.19804
       O   -17.44246  -18.60486  -19.01300
      H1   -17.09607  -17.99924  -19.66025
       H   -17.51867  -14.93065  -12.89080
       O   -18.43324  -15.17724  -12.97921
      H1   -18.42596  -15.65194  -13.86035
       H   -14.11824  -13.42454  -15.75692
       O   -14.93281  -13.94297  -15.56999
      H1   -15.58163  -13.30101  -15.25929
       H   -16.49847  -16.90249  -16.27626
       O   -15.86332  -17.45836  -16.78027
      H1   -15.42017  -16.72684  -17.23323
       H   -15.23064  -13.98206  -12.18045
       O   -15.64386  -14.70501  -12.75940
      H1   -15.43181  -14.55538  -13.68561
       H   -18.61015  -17.65309  -15.23320
       O   -18.47082  -16.69939  -15.37241
      H1   -19.13424  -16.51039  -16.11223
       H   -14.39707  -17.60373  -13.50425
       O   -14.08590  -16.91063  -12.93159
      H1   -14.75241  -16.23293  -12.90051

