42
frame 2 | Written by MDAnalysis XYZWriter (release 2.4.3)
       H     1.26357   10.23668   -2.06300
       O     1.70408    9.37291   -2.22049
      H1     2.29088    9.32153   -1.48350
       H     2.20365    8.53652   -4.00894
       O     1.88801    8.15372   -4.82170
      H1     1.13095    8.69858   -5.06709
       H     8.02536   10.30481   -5.56361
       O     7.38807   10.55150   -4.88453
      H1     6.63312    9.99116   -5.01677
       H     4.48532    6.46203   -5.15480
       O     4.52490    6.95470   -6.00517
      H1     3.57925    6.91047   -6.18321
       H     8.26072    9.14282   -1.73823
       O     7.46826    9.22681   -2.27318
      H1     7.64576    9.68908   -3.18059
       H     3.36284    5.13612   -3.72047
       O     3.45906    4.81741   -4.68635
      H1     2.53528    4.96566   -5.01015
       H     0.17589    5.59982   -6.05140
       O     1.05965    5.71403   -5.63898
      H1     0.89807    6.61075   -5.39044
       H     2.67945    7.28120    0.08218
       O     3.17047    7.96264   -0.43961
      H1     3.28454    7.53093   -1.29292
       H     4.91101    8.43057   -0.16477
       O     5.78752    8.77732   -0.12576
      H1     5.92770    9.21679   -0.97727
       H     2.67752   12.11240   -5.06146
       O     3.27646   11.42744   -4.72893
      H1     2.67578   10.94147   -4.16745
       H     4.84120    6.92123   -2.36677
       O     3.91457    7.01754   -2.68013
      H1     4.10307    7.70202   -3.29795
       H     4.82560    8.43282   -5.18685
       O     4.95035    9.15809   -4.58840
      H1     4.36815    9.88201   -4.85555
       H     3.92261    3.90311   -1.88798
       O     4.87745    3.98011   -2.01654
      H1     5.19116    4.68738   -1.51598
       H     7.34431    6.07129   -2.78181
       O     6.65376    6.58588   -2.41642
      H1     7.09968    7.42463   -2.41640

