42
frame 3 | Written by MDAnalysis XYZWriter (release 2.4.3)
       H    13.31795    3.81250    1.94987
       O    13.99730    3.72176    1.25130
      H1    14.14562    2.79589    1.15044
       H    12.90440    9.18337    2.14407
       O    13.07483    8.21937    2.08346
      H1    13.28888    8.09590    1.13956
       H    16.07705   11.44077    0.11309
       O    15.87903   10.59613    0.54813
      H1    15.74506   10.81256    1.45621
       H    11.05528    7.55787   -1.48286
       O    11.20922    8.33863   -0.94589
      H1    10.60340    8.93560   -1.36728
       H    17.58694    8.97903    2.07956
       O    17.79865    9.31339    3.02804
      H1    18.65334    8.91505    3.28072
       H    16.61884    9.07406    0.58829
       O    17.43835    8.42219    0.61694
      H1    17.01663    7.58895    0.46361
       H    12.87809   10.74253   -2.44301
       O    12.43941   10.03434   -2.92389
      H1    12.13341    9.49740   -2.19198
       H    12.39726    5.23450   -2.30651
       O    11.78461    5.96995   -2.43704
      H1    12.01792    6.33903   -3.28831
       H    10.36325    6.63246    1.38523
       O    11.03416    6.45636    2.08036
      H1    11.74349    7.06708    1.94389
       H    14.60831    7.04714   -0.54935
       O    14.07348    7.79853   -0.55238
      H1    13.18987    7.54302   -0.88739
       H    14.04137    9.23000   -2.94385
       O    14.80102    8.65427   -2.93455
      H1    14.71373    8.16736   -2.09258
       H    14.93214    6.28145   -5.50875
       O    14.31050    6.94609   -5.09829
      H1    14.69553    7.29877   -4.31259
       H    14.63404    4.28797   -2.35379
       O    13.84563    4.29392   -1.78630
      H1    13.99022    4.19190   -0.81527
       H    16.63513    5.22151    0.68005
       O    16.43985    5.63356   -0.14888
      H1    17.26745    5.83203   -0.67950

