42
frame 2 | Written by MDAnalysis XYZWriter (release 2.4.3)
       H   -17.15489   -2.04756  -12.27287
       O   -16.64163   -1.25521  -12.64868
      H1   -16.37038   -1.56087  -13.53040
       H   -18.17957    0.37040  -12.48459
       O   -18.38910    1.11785  -13.07355
      H1   -18.04743    1.00849  -13.96961
       H   -15.83529    0.29906  -13.27752
       O   -15.34036    1.13346  -13.12224
      H1   -14.96689    1.46878  -13.97197
       H   -13.34415    1.79197  -14.78370
       O   -14.03871    2.32619  -15.22273
      H1   -14.34502    3.16854  -14.83577
       H   -16.01633    0.56505  -17.76977
       O   -15.33962    0.47766  -17.13780
      H1   -15.00998    1.33613  -16.85691
       H   -13.39340   -2.89248  -17.75957
       O   -13.23352   -2.70536  -18.75001
      H1   -13.82133   -3.13284  -19.39123
       H   -19.13855   -2.16548  -15.16317
       O   -18.71867   -2.12603  -15.96158
      H1   -18.89851   -1.20231  -16.24067
       H   -17.17115    1.10517  -19.25541
       O   -17.39412    0.25851  -18.81617
      H1   -17.05270   -0.49850  -19.35067
       H   -18.33469    0.19126  -17.38697
       O   -19.11739    0.29848  -16.85553
      H1   -19.78911   -0.10773  -17.39834
       H   -15.74874   -0.70277  -15.84539
       O   -16.10895   -1.45187  -15.28878
      H1   -16.83334   -1.87528  -15.76114
       H   -17.14937   -4.27903  -16.74412
       O   -16.39372   -4.47886  -17.36048
      H1   -16.19670   -5.40935  -17.02883
       H   -14.27734   -1.99872  -15.66518
       O   -13.37395   -2.26474  -15.90908
      H1   -12.89502   -2.37419  -15.10308
       H   -11.46654   -0.59145  -17.50917
       O   -11.31014   -0.62033  -16.54422
      H1   -12.00051   -1.20662  -16.12388
       H   -11.71583    0.16956  -15.12394
       O   -12.06494    0.55565  -14.28686
      H1   -11.36223    1.18493  -13.95554

