42
frame 2 | Written by MDAnalysis XYZWriter (release 2.4.3)
       H   -11.75748  -13.04747  -16.20069
       O   -12.06612  -13.64771  -15.47179
      H1   -11.15099  -13.90566  -15.09951
       H   -18.50657  -12.33154  -10.89199
       O   -17.63562  -12.03478  -11.15727
      H1   -17.57822  -11.09699  -10.97721
       H   -11.34851  -14.50481  -11.69749
       O   -11.22343  -13.79099  -11.04796
      H1   -10.52344  -14.08888  -10.45083
       H   -13.74804   -9.36267  -10.78597
       O   -14.28443   -9.57534  -11.56565
      H1   -15.18721   -9.30413  -11.35994
       H   -11.94754  -16.29389  -13.40142
       O   -11.06797  -16.03566  -13.08461
      H1   -10.47429  -15.70228  -13.77560
       H   -16.27696  -12.33720  -16.42537
       O   -16.47343  -13.20536  -16.13078
      H1   -16.95368  -13.11200  -15.29439
       H   -13.95857  -10.09794  -14.24416
       O   -13.62950   -9.80114  -15.07952
      H1   -14.33465  -10.11505  -15.66416
       H   -13.12180  -11.73211  -13.46042
       O   -13.92335  -11.81452  -12.92397
      H1   -13.75336  -11.17887  -12.24951
       H   -16.93584  -15.16858  -13.45101
       O   -17.88664  -15.41579  -13.62887
      H1   -17.83232  -16.16820  -14.27695
       H   -13.81540  -14.40414  -15.62377
       O   -14.69250  -14.91418  -15.58624
      H1   -15.40322  -14.25547  -15.83740
       H   -14.81370  -13.48901  -13.04916
       O   -15.10619  -14.42895  -12.96666
      H1   -14.97890  -14.72176  -13.90407
       H   -17.12421  -10.72106  -14.13215
       O   -17.52278  -11.58920  -13.86378
      H1   -17.26888  -11.77757  -12.96916
       H   -14.07290  -17.19655  -13.47727
       O   -13.61879  -16.68415  -12.78597
      H1   -14.06803  -15.83586  -12.79770
       H   -14.47548  -13.88679   -9.32477
       O   -15.26206  -13.35180   -9.45203
      H1   -15.53456  -13.47651  -10.32967

