42
frame 2 | Written by MDAnalysis XYZWriter (release 2.4.3)
       H    14.58552   -4.34523    2.52822
       O    13.91508   -4.85186    2.95754
      H1    14.51689   -5.56916    3.38169
       H    11.90190   -4.01374    4.80102
       O    12.55145   -4.42867    5.40463
      H1    13.03455   -5.01634    4.75671
       H    12.88129   -4.35633    7.40976
       O    13.60452   -3.94125    7.99494
      H1    14.00102   -3.26063    7.38396
       H    12.73983    1.96626    4.63710
       O    13.58273    2.37677    4.46877
      H1    13.25274    3.26423    4.26556
       H    14.24171   -3.53452    5.40425
       O    14.70540   -2.72825    5.70664
      H1    15.67629   -2.85715    5.60898
       H    16.57594    0.32980    5.08124
       O    16.93237   -0.35756    4.44781
      H1    16.36395   -0.34430    3.71065
       H    11.53587   -0.47857    1.73939
       O    10.89986   -1.18388    1.55880
      H1    11.18671   -1.93294    2.12683
       H    13.51798    0.32128    7.25617
       O    13.76266   -0.61657    7.55405
      H1    13.98611   -1.13465    6.74335
       H    16.04090   -2.85077    0.99649
       O    15.10772   -3.15620    1.06108
      H1    15.08020   -3.77330    0.26245
       H    12.05745   -4.00708    2.92734
       O    11.24886   -3.58111    3.16280
      H1    10.60469   -4.30472    3.29468
       H    13.56844   -1.76501    4.10369
       O    13.43152   -0.90365    3.66417
      H1    12.56416   -0.57794    3.90209
       H    15.05345   -0.78270    0.47552
       O    15.08015   -0.35882    1.37062
      H1    14.38907   -0.85891    1.82847
       H    16.08330    2.08866    6.60342
       O    15.77804    1.21792    6.41440
      H1    14.96777    1.43896    5.93263
       H    10.83190    0.68187    5.50363
       O    10.95127    0.96771    4.55565
      H1    10.21835    0.58461    4.09427

