42
frame 2 | Written by MDAnalysis XYZWriter (release 2.4.3)
       H    -6.78482   -0.04501   12.86042
       O    -5.99284    0.15509   12.24553
      H1    -5.38807   -0.58095   12.37756
       H    -7.50693   -3.55264   13.13536
       O    -6.63573   -3.55023   13.71364
      H1    -6.19147   -4.37152   13.41542
       H    -8.25524    1.63787   11.28643
       O    -8.79257    1.84639   12.09829
      H1    -9.67480    1.60816   11.84521
       H    -9.00867   -4.76111   12.62718
       O    -8.72183   -4.07228   12.04432
      H1    -8.56565   -4.44901   11.19417
       H    -7.99248    3.02567    9.45664
       O    -7.86518    2.07743    9.20305
      H1    -6.95424    1.87404    9.16442
       H   -13.11256   -1.21302    8.21523
       O   -13.61190   -0.49911    7.65647
      H1   -12.89858   -0.03781    7.19770
       H   -13.92521   -2.06778   11.22191
       O   -14.51740   -2.13029   10.44895
      H1   -15.38002   -2.05012   10.88940
       H    -8.12648   -3.51966    9.30116
       O    -8.03417   -4.49366    9.19826
      H1    -7.08431   -4.63263    9.05464
       H   -13.38742   -3.15308   13.28833
       O   -13.18239   -2.25776   12.98779
      H1   -12.29289   -2.32341   12.73479
       H    -7.27379   -0.66203   14.34122
       O    -7.94114   -0.82489   13.69018
      H1    -8.67903   -0.28411   14.13005
       H    -9.90571   -2.61297   11.48026
       O   -10.54367   -1.94818   11.04059
      H1   -10.02044   -1.17415   11.14815
       H   -12.16096    1.41296   11.41671
       O   -11.41644    0.91179   11.78162
      H1   -11.47814    1.14615   12.69863
       H    -7.46863   -0.87713    9.48402
       O    -7.30555   -1.49536   10.16641
      H1    -6.61232   -1.08107   10.63572
       H   -11.43987   -2.14842    9.29244
       O   -11.58436   -2.27984    8.35154
      H1   -10.80593   -1.83674    7.94220

