42
frame 0 | Written by MDAnalysis XYZWriter (release 2.4.3)
       H    -7.40015   -0.58482   14.32594
       O    -6.64444   -0.08263   14.09764
      H1    -5.91589   -0.68069   13.99945
       H    -9.98113    5.34535   12.97821
       O   -10.62471    5.48232   13.64095
      H1   -10.50028    6.44194   13.79760
       H   -12.50486    3.87841   13.84016
       O   -12.71440    3.02889   14.15176
      H1   -12.09462    2.80748   14.79129
       H    -7.82076    1.38675   13.84899
       O    -8.49667    2.10219   14.02337
      H1    -8.53711    2.55393   13.14180
       H    -7.80197    3.10389   15.57300
       O    -7.30477    3.73973   16.03675
      H1    -6.96719    4.34130   15.44738
       H    -7.90548    4.94484   10.79613
       O    -8.19783    4.38365   11.49136
      H1    -7.82150    4.81132   12.29951
       H    -6.10350    2.31312   16.47186
       O    -5.21344    1.93578   16.64249
      H1    -4.67043    2.54297   17.22374
       H    -9.75634   -0.95996   15.25698
       O    -9.44559   -0.47638   14.42237
      H1    -9.61472    0.45159   14.42391
       H    -9.50146    0.98943   16.77217
       O    -8.56147    1.06688   17.01134
      H1    -8.26241    0.18063   17.29244
       H   -10.70158    1.07129   10.49364
       O   -10.48021    1.04602   11.47047
      H1   -11.12467    1.66078   11.88253
       H    -8.76112    4.68059   16.44780
       O    -9.59947    5.20127   16.38916
      H1    -9.96762    4.96799   15.50055
       H    -8.88113    0.22306   10.80324
       O    -8.07841    0.20933   10.21408
      H1    -8.30500    0.43048    9.29299
       H    -5.94384    1.55070   12.25685
       O    -6.25970    1.84040   11.37458
      H1    -6.75159    1.11863   11.15211
       H   -11.48048    1.72337   17.18681
       O   -11.15655    1.22315   16.41243
      H1   -11.77269    0.50252   16.37337

