42
frame 4 | Written by MDAnalysis XYZWriter (release 2.4.3)
       H    -4.51677    2.60821   -2.29570
       O    -4.14985    2.02898   -2.97349
      H1    -4.79466    2.15652   -3.65576
       H    -4.62919   -3.00481   -7.40016
       O    -4.15290   -2.11715   -7.46832
      H1    -4.64652   -1.61078   -8.13533
       H    -0.70122   -2.59293   -4.45533
       O    -1.01926   -1.76577   -4.09312
      H1    -0.34382   -1.35321   -3.51358
       H    -4.35382   -1.33872   -6.06702
       O    -4.69801   -0.86736   -5.28637
      H1    -3.99786   -0.16420   -5.16511
       H    -3.99072   -2.19491   -2.73581
       O    -3.25742   -2.66139   -2.34658
      H1    -2.53397   -2.60005   -3.01941
       H    -7.83149   -4.13079   -4.23246
       O    -7.43135   -3.38693   -4.69750
      H1    -7.00176   -3.86656   -5.42261
       H    -6.82389    0.67908   -7.58694
       O    -6.70574   -0.23525   -7.23577
      H1    -6.06412   -0.20958   -6.49004
       H    -1.55690   -3.44730   -8.55794
       O    -2.45691   -3.61336   -8.94630
      H1    -3.02914   -3.08662   -8.38466
       H    -1.45529   -0.08733   -4.84372
       O    -2.06841    0.55649   -5.14810
      H1    -1.85397    1.31537   -4.58467
       H    -5.53212   -1.16144   -3.71798
       O    -5.86616   -1.55875   -2.90121
      H1    -6.45614   -2.30622   -3.17228
       H    -2.25370   -0.45257   -9.09907
       O    -1.74444   -0.57757   -9.87902
      H1    -1.35779   -1.44952   -9.81949
       H    -5.77160   -0.18920   -8.95595
       O    -5.13265   -0.40173   -9.62239
      H1    -5.66151   -0.90660  -10.34039
       H    -2.55786    0.48975   -6.92540
       O    -2.94642    0.67741   -7.75829
      H1    -3.55878    1.35626   -7.55097
       H    -4.81904   -4.85158   -6.74340
       O    -5.53766   -4.22645   -6.99398
      H1    -6.05530   -4.69818   -7.67574

