42
frame 0 | Written by MDAnalysis XYZWriter (release 2.4.3)
       H    11.71015    8.73422    8.60391
       O    11.58461    9.30372    7.84361
      H1    11.50019   10.15650    8.22011
       H    12.90398   15.63123    7.15531
       O    12.93807   14.73045    7.54261
      H1    13.71150   14.76483    8.18959
       H    15.00025    9.97957    8.44960
       O    15.19576    9.33405    9.19480
      H1    15.70527    8.67703    8.79799
       H    16.09272    6.80006    8.38156
       O    16.47264    7.38004    7.72260
      H1    16.09438    7.24752    6.87180
       H     9.99055   10.07649    5.54750
       O     9.02629   10.20215    5.77108
      H1     8.75023   11.05284    5.39448
       H    16.98320   11.68105    8.29282
       O    16.90187   11.91310    7.36137
      H1    17.36845   11.26898    6.80645
       H    15.16408    8.00654    4.67451
       O    15.01764    7.42136    5.40230
      H1    14.17150    7.01188    5.43872
       H    13.90467   12.97137    5.02602
       O    13.18211   13.62058    5.14572
      H1    13.19594   13.96020    6.10305
       H    15.15690   11.46833    7.19057
       O    14.23531   11.12119    7.33114
      H1    13.90719   10.99867    6.43652
       H    15.69067   11.22303    5.17982
       O    15.05067   11.70389    4.65241
      H1    15.51958   12.10979    3.94414
       H    11.80746   10.44499    6.38899
       O    11.80787   10.79899    5.49501
      H1    12.02334   11.73110    5.61245
       H    11.05157   12.64985    8.88875
       O    11.71565   12.29527    9.53714
      H1    11.32696   12.27662   10.42265
       H    13.53083   12.25110    9.92698
       O    14.38048   12.27768   10.45126
      H1    14.42765   11.51824   11.05374
       H    13.79545   10.90734    3.32422
       O    13.01075   10.37647    3.04631
      H1    12.60898   10.39517    3.91354

