42
frame 3 | Written by MDAnalysis XYZWriter (release 2.4.3)
       H    16.54222   12.41008    3.49772
       O    16.24227   12.44803    2.59745
      H1    17.06257   12.40073    2.05783
       H    13.84694   14.63877    2.46220
       O    14.36768   14.22346    1.79338
      H1    14.99569   13.66711    2.26286
       H    12.90440    9.18337    2.14407
       O    13.07483    8.21937    2.08346
      H1    13.28888    8.09590    1.13956
       H    16.07705   11.44077    0.11309
       O    15.87903   10.59613    0.54813
      H1    15.74506   10.81256    1.45621
       H    12.29815   16.92528    2.58963
       O    12.05632   16.02676    2.82270
      H1    12.02425   15.98579    3.81269
       H    12.87809   10.74253   -2.44301
       O    12.43941   10.03434   -2.92389
      H1    12.13341    9.49740   -2.19198
       H    14.56003   15.75825    0.11325
       O    14.42289   16.27222   -0.68757
      H1    13.53668   16.06440   -0.96718
       H     9.75713   14.53199    5.39127
       O    10.18258   13.68136    5.44418
      H1    11.15257   13.86016    5.47929
       H    11.59306   15.35823   -2.18668
       O    11.81296   16.01960   -1.52502
      H1    11.23049   15.93336   -0.75288
       H    12.51120   12.87387   -0.85973
       O    12.71712   12.44966   -1.69470
      H1    13.71671   12.41821   -1.76412
       H    10.43935   16.05197    1.81587
       O     9.69934   15.82230    1.21176
      H1     9.41369   14.96348    1.58810
       H    12.33147   10.72585    3.65092
       O    11.83845   10.77146    2.81179
      H1    10.95474   10.61212    3.18415
       H    12.84667   13.19331    1.45247
       O    11.99674   13.06808    0.94235
      H1    11.77398   12.14742    1.21843
       H     9.45807   13.29014    3.64221
       O     9.48752   13.36654    2.72175
      H1    10.44472   13.21410    2.52521

