42
frame 3 | Written by MDAnalysis XYZWriter (release 2.4.3)
       H   -18.46283  -15.60925   -9.75184
       O   -19.20807  -15.32390  -10.31846
      H1   -18.81054  -15.38468  -11.25093
       H   -14.02804  -17.90815   -8.34756
       O   -14.44322  -17.42713   -7.59456
      H1   -15.34398  -17.20561   -7.91687
       H   -12.66577  -16.24421  -13.24980
       O   -11.74670  -15.85329  -13.15921
      H1   -11.36935  -15.40856  -13.89942
       H   -17.30084  -15.98925   -7.41926
       O   -16.93715  -16.43035   -8.19637
      H1   -16.55926  -15.69279   -8.67511
       H   -15.03192  -18.41712  -15.73302
       O   -14.56646  -18.86694  -14.97419
      H1   -14.13678  -19.68166  -15.31320
       H   -17.89421  -18.76268   -7.75014
       O   -18.83298  -19.06602   -7.60974
      H1   -19.43103  -18.38401   -7.30074
       H   -17.51867  -14.93065  -12.89080
       O   -18.43324  -15.17724  -12.97921
      H1   -18.42596  -15.65194  -13.86035
       H   -14.90960  -19.16606  -10.86990
       O   -15.43676  -19.91319  -11.07301
      H1   -16.33574  -19.57979  -11.25609
       H   -15.23064  -13.98206  -12.18045
       O   -15.64386  -14.70501  -12.75940
      H1   -15.43181  -14.55538  -13.68561
       H   -12.79091  -18.95299  -10.27480
       O   -13.57627  -18.43327   -9.97976
      H1   -13.59286  -17.60255  -10.43413
       H   -18.61015  -17.65309  -15.23320
       O   -18.47082  -16.69939  -15.37241
      H1   -19.13424  -16.51039  -16.11223
       H   -14.39707  -17.60373  -13.50425
       O   -14.08590  -16.91063  -12.93159
      H1   -14.75241  -16.23293  -12.90051
       H   -15.07817  -14.41536   -9.67034
       O   -15.91298  -14.08263   -9.40855
      H1   -16.29297  -13.53381  -10.13996
       H   -13.02777  -15.26378  -10.19723
       O   -13.88063  -15.60930   -9.93188
      H1   -13.72923  -16.04591   -9.06335

