42
frame 3 | Written by MDAnalysis XYZWriter (release 2.4.3)
       H   -18.00407    1.11559  -15.03063
       O   -18.15942    1.70278  -14.26467
      H1   -17.68411    2.47011  -14.68872
       H   -13.69508    1.61344  -15.39233
       O   -14.28963    2.18651  -15.91429
      H1   -15.09801    2.47850  -15.46774
       H   -16.60939    6.49621  -16.32952
       O   -16.88552    5.69486  -16.79066
      H1   -16.83630    5.89481  -17.70643
       H   -16.08790    0.61588  -17.67938
       O   -15.46497   -0.00863  -17.21392
      H1   -14.88815    0.62767  -16.80214
       H   -19.43892    3.74727  -17.82945
       O   -19.48189    2.88976  -18.33660
      H1   -19.00811    2.23015  -17.73908
       H   -13.58774    6.78029  -17.25643
       O   -13.54889    7.60582  -17.79009
      H1   -13.77581    8.34197  -17.14536
       H   -17.07993    6.39643  -12.95311
       O   -16.38411    6.44354  -12.28789
      H1   -16.08370    7.38266  -12.32498
       H   -17.10331    8.25579  -15.02705
       O   -16.34960    8.16561  -15.59101
      H1   -15.53571    8.34289  -15.01016
       H   -18.69789    4.02651  -12.37998
       O   -18.69124    4.49155  -13.18111
      H1   -19.43073    4.00703  -13.61823
       H   -14.73705    5.54054  -11.61746
       O   -14.06420    4.82953  -11.53552
      H1   -14.59002    4.05918  -11.73876
       H   -13.97670    4.49833  -18.26977
       O   -13.52735    4.57077  -17.37649
      H1   -13.84749    3.77544  -16.95045
       H   -20.02720    4.78118  -15.96642
       O   -19.49649    5.22677  -16.64187
      H1   -18.53362    5.22388  -16.44315
       H   -12.77579    6.48389  -13.88308
       O   -12.87044    7.18463  -14.52329
      H1   -12.61306    7.93408  -13.97793
       H   -16.36303    4.52131  -15.43022
       O   -16.43454    3.78053  -14.84835
      H1   -16.15538    4.12162  -14.00657

