42
frame 3 | Written by MDAnalysis XYZWriter (release 2.4.3)
       H    -1.02419  -15.83124  -10.51186
       O    -1.99074  -15.93717  -10.56541
      H1    -2.38826  -15.04103  -10.61764
       H     0.91139  -19.19525  -15.72749
       O     1.84183  -18.99304  -15.55734
      H1     2.30903  -19.43581  -16.24499
       H    -4.37491  -18.61931  -14.19023
       O    -4.04566  -17.86660  -14.61910
      H1    -3.33622  -17.47466  -14.07546
       H    -5.34850  -14.90262  -11.81294
       O    -4.99199  -14.05329  -12.07975
      H1    -5.77568  -13.48403  -12.08401
       H    -5.09896  -16.43620  -14.73520
       O    -5.63903  -15.62597  -14.93227
      H1    -5.04772  -14.84741  -14.72966
       H    -1.77485  -16.85287  -12.01359
       O    -1.71088  -17.22864  -12.88457
      H1    -1.03294  -17.92640  -13.00809
       H     0.81041  -15.83791  -14.59627
       O     1.53021  -16.22334  -15.12349
      H1     1.50396  -17.18580  -14.93780
       H     3.08194  -19.10302  -12.20274
       O     2.17614  -18.83152  -12.37321
      H1     2.27726  -17.89412  -12.63069
       H     0.32854  -13.89226  -12.78013
       O     0.41149  -13.72195  -13.71358
      H1    -0.42785  -13.34414  -13.83559
       H     4.14804  -16.27293  -13.12585
       O     3.15723  -16.23655  -12.92326
      H1     2.68059  -16.17252  -13.78152
       H    -1.85761  -16.97467  -17.23163
       O    -2.80596  -17.00760  -17.06565
      H1    -2.91802  -17.18829  -16.12700
       H     1.33602  -18.39210  -10.23258
       O     0.41652  -18.19377  -10.28028
      H1    -0.08514  -18.93606  -10.68319
       H     1.13240  -15.93044   -7.73056
       O     0.46525  -16.01023   -8.44440
      H1     0.78383  -16.60417   -9.08781
       H    -3.59015  -16.95515  -10.09873
       O    -4.30938  -17.54824   -9.90037
      H1    -4.97546  -17.06036   -9.37492

