42
frame 3 | Written by MDAnalysis XYZWriter (release 2.4.3)
       H     3.19035   -5.11007   -5.58049
       O     3.25434   -4.24947   -5.99356
      H1     3.09681   -4.37541   -6.95356
       H     4.70869   -1.29281   -3.16161
       O     4.51370   -2.15352   -3.53808
      H1     4.62895   -2.83100   -2.87579
       H    -1.64890   -2.84256   -3.29275
       O    -1.98272   -2.48711   -4.14051
      H1    -2.19476   -3.24925   -4.66603
       H     1.28145   -5.73187   -3.27683
       O     0.78652   -4.94506   -3.25755
      H1     1.29828   -4.18206   -3.65151
       H    -0.73093   -5.85432   -5.66723
       O    -1.36216   -5.34929   -5.08850
      H1    -0.82025   -5.27725   -4.31069
       H    -0.31104   -3.89103   -6.08496
       O     0.17498   -3.18304   -6.40806
      H1     0.30589   -3.33110   -7.33183
       H     0.90660   -0.72943   -1.29646
       O     1.24953   -1.67237   -1.25690
      H1     1.35194   -1.94603   -2.18051
       H    -0.04632   -2.86871   -1.55435
       O    -0.88717   -3.36415   -1.76875
      H1    -0.53721   -4.14732   -2.18412
       H     2.73338   -2.76199   -4.20924
       O     1.79140   -2.52464   -4.16774
      H1     1.45283   -2.83922   -5.04437
       H    -1.53773   -0.50482   -4.37308
       O    -1.60181    0.46748   -4.61459
      H1    -0.72226    0.83360   -4.42109
       H     3.38433    0.10230   -4.37912
       O     2.48540    0.14865   -4.72247
      H1     1.97254   -0.64286   -4.47098
       H     5.31046   -2.85631   -5.35677
       O     5.99789   -2.43473   -5.91594
      H1     6.66120   -2.01976   -5.35915
       H     4.67240   -1.63374   -6.85406
       O     4.23148   -1.55685   -7.70261
      H1     3.50418   -0.93831   -7.59844
       H     3.66169   -3.29588   -8.62050
       O     3.32490   -4.17981   -8.77147
      H1     2.39797   -3.98432   -8.60616

