42
frame 3 | Written by MDAnalysis XYZWriter (release 2.4.3)
       H    -4.58515    4.05707   16.73915
       O    -3.63934    3.82736   16.70390
      H1    -3.22637    4.36577   16.00947
       H    -7.13945    8.51091   18.75549
       O    -7.50475    9.38294   18.89452
      H1    -7.97883    9.33373   19.70177
       H    -3.65363    5.61421   19.27956
       O    -3.83709    4.69115   19.40766
      H1    -3.83292    4.39525   18.46829
       H    -7.96152    6.73801   17.09691
       O    -7.30416    6.70095   17.78868
      H1    -7.06305    5.79126   17.71088
       H    -0.68703    6.25115   18.23841
       O    -0.71415    6.51076   17.27277
      H1    -0.38035    7.41825   17.31485
       H    -5.44231    2.05076   14.84653
       O    -4.61124    1.63374   15.19823
      H1    -4.30508    2.29883   15.80506
       H    -2.07722    4.97202   14.31652
       O    -2.39824    5.73572   14.87339
      H1    -1.87872    5.97590   15.62084
       H    -1.74268    2.10338   18.75049
       O    -0.92041    1.65763   18.44250
      H1    -0.20873    2.14413   18.87105
       H     0.49252    5.49029   16.29952
       O     1.29737    5.30320   15.74753
      H1     1.61076    4.39070   15.84273
       H    -7.02904    1.48470   20.44268
       O    -6.91061    1.69296   19.46120
      H1    -6.95263    0.86248   18.96927
       H    -6.28818    3.44272   18.03389
       O    -6.18037    4.22202   17.43999
      H1    -6.50865    3.89379   16.59810
       H    -5.55981   10.23201   18.83644
       O    -4.66127   10.31724   18.44788
      H1    -4.74873   11.23953   18.02471
       H    -4.71298    8.95084   17.10500
       O    -4.69015    8.32304   16.40471
      H1    -4.03147    8.68568   15.77339
       H    -4.19514    7.54089   18.12278
       O    -3.87582    7.37379   19.00610
      H1    -4.65502    7.40392   19.61517

