42
frame 4 | Written by MDAnalysis XYZWriter (release 2.4.3)
       H   -17.77392    6.38105    9.06358
       O   -17.43428    6.29810   10.01087
      H1   -18.16189    6.42438   10.63120
       H   -16.56083    4.65868    7.37765
       O   -16.40932    3.74403    7.69560
      H1   -15.93800    3.82718    8.55918
       H   -17.97573    2.96078    7.56199
       O   -18.76535    2.44111    7.40260
      H1   -19.48764    2.77519    7.91181
       H   -15.97525    5.32384   10.43342
       O   -15.26363    4.69795   10.29414
      H1   -15.48518    3.87925   10.74569
       H   -16.21501    7.77554   10.25555
       O   -15.40171    8.19406    9.90765
      H1   -15.04953    8.67891   10.66060
       H   -16.40008    9.44790    8.44591
       O   -17.23368    9.22517    8.01312
      H1   -17.45568    9.95532    7.46661
       H   -16.14528    3.04843    4.54125
       O   -15.60483    2.68337    5.22338
      H1   -16.13431    2.73875    6.00806
       H   -19.41006    7.24401    3.82074
       O   -19.11105    8.12679    4.10184
      H1   -18.12193    8.01958    4.11863
       H   -18.99380    4.32623    3.37651
       O   -18.36325    3.93945    3.95188
      H1   -17.57567    3.90918    3.40415
       H   -17.24282    7.52354    7.34761
       O   -17.41969    6.63978    7.12577
      H1   -18.41844    6.64809    6.96120
       H   -15.88951    6.67019    4.29930
       O   -16.34108    7.40984    3.89627
      H1   -16.00658    7.36540    2.96983
       H   -15.28509    8.06710    4.89071
       O   -14.71776    8.69816    5.39855
      H1   -13.82384    8.59058    5.04205
       H   -18.79222    8.78801    8.87850
       O   -19.68107    8.45762    9.09420
      H1   -19.60612    8.28780   10.02032
       H   -14.50408    7.06279    8.63491
       O   -14.01251    6.33775    8.17281
      H1   -14.11018    5.55227    8.78060

