42
frame 3 | Written by MDAnalysis XYZWriter (release 2.4.3)
       H   -15.27706   17.67339  -18.34378
       O   -15.51828   17.21403  -17.50598
      H1   -15.78239   16.31264  -17.72885
       H   -11.73463   15.68906  -13.71519
       O   -11.01561   15.03792  -13.55852
      H1   -10.67875   14.92480  -14.46046
       H   -12.19146   13.46144  -14.30584
       O   -13.11923   13.13684  -14.49179
      H1   -13.21088   13.01699  -15.45256
       H   -11.46522   11.75576  -16.57170
       O   -11.06840   10.85516  -16.60898
      H1   -10.25152   10.93453  -16.05799
       H   -13.05316   16.10415  -20.13511
       O   -13.25936   15.60753  -19.32518
      H1   -13.79688   16.27195  -18.85084
       H   -11.93014   16.00110  -18.14607
       O   -11.37511   16.33875  -17.41674
      H1   -10.86056   15.59626  -17.10218
       H   -11.63696   12.16459  -18.89778
       O   -11.13771   13.01480  -18.89309
      H1   -11.34557   13.44283  -19.79318
       H   -10.38888   16.53208  -18.75984
       O    -9.97041   16.71128  -19.58569
      H1   -10.24720   17.64351  -19.74034
       H   -17.72906   13.26135  -15.41216
       O   -17.69138   13.16094  -16.37814
      H1   -17.59545   12.21010  -16.53177
       H   -18.56754   17.38287  -17.30380
       O   -17.97071   17.84699  -16.68444
      H1   -17.02615   17.81703  -16.97201
       H   -12.24575   17.24545  -15.80376
       O   -12.24633   17.52096  -14.86708
      H1   -13.13172   17.58113  -14.47728
       H   -12.72383   12.96222  -17.80319
       O   -13.43034   12.79190  -17.16292
      H1   -14.16385   13.30534  -17.56485
       H    -9.90075   19.26292  -15.80216
       O    -9.97448   19.75706  -16.63848
      H1   -10.28551   19.09777  -17.24078
       H   -16.09520   14.46992  -18.67328
       O   -15.72684   14.33289  -17.75875
      H1   -16.35540   13.83320  -17.25099

