42
frame 3 | Written by MDAnalysis XYZWriter (release 2.4.3)
       H    -4.97849   -4.29080  -11.11781
       O    -4.72100   -4.35821  -10.17498
      H1    -4.11140   -3.67648   -9.95219
       H    -9.20332   -1.42752   -8.70592
       O    -9.36814   -1.96777   -9.45580
      H1    -8.61574   -1.96609  -10.05896
       H    -6.35447   -4.48353   -9.09701
       O    -6.83232   -4.93377   -8.37548
      H1    -7.12347   -5.74028   -8.76894
       H   -11.67962   -7.86187   -9.31465
       O   -11.15883   -7.22322   -9.86993
      H1   -11.54990   -7.42767  -10.72564
       H    -7.47666   -2.84246  -11.31673
       O    -7.01084   -1.99855  -11.17539
      H1    -7.26999   -1.42388  -11.88734
       H    -7.08111   -8.30305  -12.19929
       O    -7.60405   -8.23617  -13.02775
      H1    -7.36785   -7.36565  -13.43055
       H    -7.72057   -8.05037  -10.13630
       O    -7.13296   -7.28888  -10.03104
      H1    -6.35672   -7.69059   -9.57715
       H   -10.94958   -3.39111  -12.63045
       O   -10.40147   -3.79904  -13.30430
      H1   -10.89299   -4.50923  -13.69140
       H    -9.38534   -2.50130  -15.94033
       O    -8.76897   -2.99275  -15.35183
      H1    -9.30611   -3.11105  -14.55052
       H    -4.37250   -5.86983   -9.06363
       O    -4.34185   -6.68919   -8.57689
      H1    -3.53930   -7.18630   -8.80186
       H   -10.96938   -3.69255  -10.02334
       O   -11.91600   -3.63985  -10.15120
      H1   -12.09102   -2.77149   -9.88921
       H    -9.05759   -4.51812  -12.30288
       O    -8.31315   -4.42647  -11.67550
      H1    -8.27586   -5.18400  -11.11955
       H    -6.27358   -3.09055  -15.01547
       O    -5.64670   -3.72204  -14.73379
      H1    -5.30027   -4.23372  -15.45465
       H    -6.52174   -5.41699  -14.61732
       O    -6.42530   -6.37331  -14.54406
      H1    -6.97785   -6.70624  -15.28167

