42
frame 0 | Written by MDAnalysis XYZWriter (release 2.4.3)
       H    -0.80388   -6.95582    5.57318
       O    -0.45933   -7.88447    5.63867
      H1    -1.07527   -8.27264    6.30322
       H    -0.31867  -12.12682   12.62242
       O    -0.15941  -12.40563   11.74005
      H1    -0.92630  -12.08253   11.13849
       H    -1.74497   -9.77862   10.15797
       O    -1.23008   -8.94157   10.37032
      H1    -0.33136   -9.24838   10.16116
       H    -1.03040   -8.85662   13.00204
       O    -1.06520   -9.01416   13.94470
      H1    -0.47137   -9.78754   14.04487
       H     3.23439  -10.40715   14.63121
       O     3.56885   -9.91467   13.89298
      H1     3.22042  -10.33226   13.09425
       H    -0.59478  -11.85915    8.03858
       O    -1.40281  -12.00882    8.59362
      H1    -1.95200  -12.63822    8.14829
       H    -3.29071  -10.23072    6.66393
       O    -2.39556   -9.97522    6.94915
      H1    -2.25943  -10.55905    7.71132
       H     3.03856   -7.27086   10.50038
       O     2.59925   -7.32005    9.62369
      H1     1.98617   -6.53210    9.47638
       H     1.75501  -10.12714   10.04382
       O     1.19012   -9.56133    9.49334
      H1     1.51333   -8.63879    9.62341
       H     3.74065  -10.58660   10.53350
       O     3.03933  -10.77854   11.17428
      H1     2.62465  -11.62630   10.88185
       H     2.28752  -11.74528    7.53985
       O     1.36708  -11.61227    7.71685
      H1     1.26196  -10.68208    7.95593
       H     0.20356   -5.63725   10.23873
       O     0.92867   -5.09552    9.98492
      H1     0.68729   -4.53524    9.28605
       H     1.32535   -7.33792    6.89080
       O     2.24832   -7.45961    6.96968
      H1     2.48307   -7.36759    7.93461
       H     1.49379  -13.24071    9.92951
       O     2.38592  -13.52154   10.23204
      H1     2.86555  -13.45097    9.40352

