42
frame 4 | Written by MDAnalysis XYZWriter (release 2.4.3)
       H     9.32184   18.48959   11.51437
       O     8.85860   17.91452   10.80945
      H1     8.00128   17.67645   11.16595
       H     4.18707   17.56823   12.84590
       O     3.28014   17.32971   13.19620
      H1     2.81953   17.00166   12.39375
       H     5.99484   18.34999   11.57971
       O     5.83221   17.61562   12.14186
      H1     5.80591   16.77023   11.65514
       H     7.08911   16.95019   12.93331
       O     7.87304   16.69437   13.42153
      H1     7.93712   15.73284   13.50001
       H    10.12429   16.62672   10.63574
       O    10.71424   15.95472   10.44809
      H1    11.62032   16.33372   10.64728
       H    11.03996   14.89590   14.16541
       O    11.11319   13.95855   14.51905
      H1    11.57239   13.46693   13.83664
       H    11.87446   20.21045   17.11664
       O    11.97710   19.23515   17.12855
      H1    11.11917   18.78411   16.79244
       H     9.41649   13.70421   14.34977
       O     8.49817   13.86475   13.96232
      H1     7.79209   13.54782   14.60554
       H     4.18849   17.35777   15.49461
       O     4.25786   17.83491   16.31899
      H1     4.21403   17.23120   17.07533
       H     6.61902   13.91109   16.93217
       O     6.51547   14.43001   17.71187
      H1     6.47428   13.79539   18.44148
       H     8.63087   16.81497   17.56406
       O     7.71321   16.85281   17.90140
      H1     7.38379   15.98106   17.85297
       H     7.65253   18.11964   14.55867
       O     7.25614   18.60779   15.33005
      H1     7.21501   17.96074   16.03591
       H    10.18793   17.25546   15.69509
       O     9.91877   17.74751   16.46474
      H1     9.11584   18.30330   16.22926
       H    10.24071   16.70713   13.22385
       O    10.91588   16.64381   13.87091
      H1    11.70554   16.99431   13.44411

