42
frame 5 | Written by MDAnalysis XYZWriter (release 2.4.3)
       H     6.32960   -1.96411    3.01429
       O     6.04506   -1.33869    2.38166
      H1     6.64623   -0.53397    2.39571
       H     6.58253    3.28688    4.92959
       O     7.28173    2.67863    4.60366
      H1     7.62890    2.21401    5.38593
       H     3.27273   -2.10147    6.71789
       O     3.60415   -3.00196    6.83398
      H1     2.90794   -3.50588    7.30210
       H     4.67224    0.04223    4.40378
       O     3.80158    0.21122    4.76808
      H1     3.91959    1.08869    5.09121
       H     3.77591   -3.40121    5.04584
       O     4.25286   -3.44155    4.17962
      H1     3.72880   -3.96951    3.52583
       H    10.15320   -1.75174    4.87761
       O     9.65968   -0.91573    4.95838
      H1     8.74347   -1.22190    4.89760
       H     2.86730   -0.19109    3.22323
       O     2.21940   -0.50470    2.58318
      H1     1.96216   -1.32158    2.98890
       H     6.98511    0.18831    6.48604
       O     7.19423    0.96683    7.02662
      H1     7.67975    0.58502    7.77288
       H     7.19433    1.49824    1.51503
       O     6.42971    1.39776    2.00973
      H1     6.60014    1.86406    2.80401
       H     0.73711   -0.40887    5.93346
       O    -0.11509   -0.76749    5.59436
      H1    -0.73780   -0.03248    5.71841
       H     3.09385   -0.08195    6.15753
       O     2.54105   -0.48111    6.89757
      H1     2.76467   -0.25798    7.76469
       H     6.87338   -1.87841    5.94768
       O     6.56614   -1.31875    5.19910
      H1     5.72305   -1.72315    4.95872
       H     4.12036    2.46692    7.05350
       O     3.60576    2.58578    6.25073
      H1     4.04420    3.29543    5.83271
       H     5.19743    0.80012    0.61625
       O     4.54394    0.30935    0.11973
      H1     4.18630   -0.32893    0.78271

