42
frame 4 | Written by MDAnalysis XYZWriter (release 2.4.3)
       H     3.89708   -8.04844    3.62540
       O     4.59950   -7.99807    2.94622
      H1     4.20516   -7.64593    2.09242
       H     0.84445   -7.34310    1.87570
       O     1.11366   -7.68130    0.96733
      H1     1.98524   -7.23681    0.81566
       H     6.09718   -7.04857    4.19119
       O     6.41913   -6.14689    4.32201
      H1     5.60684   -5.53450    4.21555
       H    -0.37398   -6.03352    5.40015
       O     0.21422   -6.65461    5.81008
      H1    -0.37649   -7.13244    6.42919
       H     1.97904   -5.66325    3.73452
       O     2.24606   -6.52658    4.13055
      H1     1.45091   -6.79472    4.68278
       H     3.71875   -2.46765    6.71391
       O     4.18779   -3.33175    6.93701
      H1     3.51788   -4.03297    7.04634
       H    -0.97944   -2.44830    4.34036
       O    -0.07606   -2.46046    4.49771
      H1     0.02874   -2.57531    5.45709
       H     4.50614   -3.47649    5.03128
       O     4.94903   -3.39605    4.17255
      H1     4.28930   -3.64499    3.50910
       H     2.05870   -3.91887    2.19391
       O     1.87416   -4.01242    3.09962
      H1     1.15298   -3.43466    3.31630
       H     5.95608   -6.35687    7.08367
       O     5.05784   -6.69960    7.07292
      H1     4.92182   -6.72795    6.15938
       H     0.17671   -9.90976    4.75695
       O    -0.36365   -9.35515    4.21676
      H1    -0.66675   -8.63206    4.78835
       H     4.59914   -6.71244    0.04350
       O     3.87076   -6.53247    0.69767
      H1     3.75867   -5.58396    0.67075
       H     1.54158   -5.27724    6.57068
       O     1.97267   -4.90646    7.35350
      H1     2.09908   -5.71902    7.88485
       H     2.21606   -3.15569    0.26178
       O     2.97161   -3.60956    0.61111
      H1     3.71603   -3.02709    0.50416

