42
frame 4 | Written by MDAnalysis XYZWriter (release 2.4.3)
       H    -5.17148  -17.02120   10.16022
       O    -5.18608  -16.48930    9.38533
      H1    -4.63615  -16.98578    8.80351
       H   -11.37717  -14.38339   14.35960
       O   -11.62698  -15.30521   14.08243
      H1   -12.53653  -15.22719   13.70097
       H    -5.74245  -18.18281   12.40092
       O    -4.82139  -18.25890   12.00661
      H1    -4.31779  -18.52884   12.78435
       H    -4.52837  -15.77257   16.14069
       O    -4.29559  -16.32410   15.34593
      H1    -4.84142  -15.94731   14.62650
       H    -8.58628  -14.86166   16.44710
       O    -8.07385  -15.53982   16.00097
      H1    -7.85912  -15.18344   15.12261
       H    -8.42512  -12.18361   11.34424
       O    -8.00549  -12.95376   11.68282
      H1    -7.17914  -12.52927   12.16401
       H    -6.76160  -17.91010   14.62109
       O    -7.02215  -17.99141   13.72857
      H1    -7.65696  -18.70284   13.75695
       H    -7.71341  -14.88243   12.62651
       O    -7.02531  -15.26664   13.21177
      H1    -7.21537  -16.27079   13.27475
       H   -11.16423  -18.23311   12.08703
       O   -11.60446  -18.07527   12.91614
      H1   -11.17494  -17.27342   13.16400
       H    -9.43020  -17.07897   18.35613
       O    -9.51153  -17.40516   17.42392
      H1    -9.04984  -16.70207   16.86007
       H    -4.12850  -14.07473   11.95466
       O    -4.43550  -13.84987   12.87021
      H1    -5.23786  -14.42019   12.94741
       H    -5.34033  -12.38900   13.16263
       O    -6.07943  -11.80684   13.02963
      H1    -6.17787  -11.34509   13.87103
       H    -8.46103  -15.05967    9.34208
       O    -7.76966  -15.17299    8.67099
      H1    -6.93345  -15.18340    9.08436
       H    -6.31477  -14.52103   18.26940
       O    -5.92290  -14.84707   17.45701
      H1    -6.67658  -15.26888   17.03968

