42
frame 4 | Written by MDAnalysis XYZWriter (release 2.4.3)
       H    -5.34334   -8.00318   -2.60298
       O    -4.73419   -8.21030   -1.87047
      H1    -4.57991   -7.39370   -1.36128
       H    -7.14297   -8.75838    2.23561
       O    -7.78680   -8.18438    1.80988
      H1    -7.76962   -8.48178    0.88091
       H    -7.83036   -6.81356   -0.47833
       O    -8.15214   -5.87700   -0.30281
      H1    -7.42530   -5.52667    0.27016
       H    -7.08501   -6.27941   -4.20537
       O    -6.32809   -6.85595   -4.34962
      H1    -6.74336   -7.72501   -4.63310
       H    -8.02359   -8.53581   -1.69829
       O    -7.52194   -8.66169   -0.85953
      H1    -6.56691   -8.67041   -1.09937
       H    -7.83057   -9.85865   -5.68814
       O    -7.21359   -9.70426   -4.95762
      H1    -7.44833  -10.32689   -4.22016
       H    -9.26662   -9.03992   -3.47804
       O    -9.19303   -8.32704   -2.86979
      H1    -9.35043   -7.50270   -3.30865
       H    -8.03184  -12.31263   -2.87391
       O    -7.29850  -11.64798   -2.94113
      H1    -6.89786  -11.79535   -2.06349
       H    -4.81875  -11.34436   -1.14507
       O    -5.64239  -11.69891   -0.68776
      H1    -5.39132  -12.62870   -0.58372
       H    -3.64767   -7.51337   -3.29281
       O    -3.04535   -7.39649   -4.04425
      H1    -3.58724   -6.89534   -4.71948
       H    -3.87297   -5.58336   -0.52498
       O    -4.75541   -5.98586   -0.27575
      H1    -5.18652   -5.40095   -0.95863
       H    -7.90633  -11.37571   -0.22639
       O    -8.20347  -12.05503    0.38237
      H1    -9.14842  -12.07226    0.07286
       H   -10.08127   -8.84641   -1.41055
       O   -10.61643   -9.15918   -0.67169
      H1   -11.48315   -9.30706   -1.07415
       H    -3.88903   -9.71926   -1.98280
       O    -3.48394  -10.63349   -2.04353
      H1    -2.64790  -10.65267   -1.58992

