42
frame 4 | Written by MDAnalysis XYZWriter (release 2.4.3)
       H   -17.57990   20.21262   10.41212
       O   -17.15977   19.89383    9.61747
      H1   -17.31110   18.94020    9.62722
       H   -14.90208   16.30752    9.08919
       O   -14.15705   16.72922    9.60419
      H1   -13.85749   16.05648   10.22859
       H   -17.15074   16.63956   10.39380
       O   -17.76557   17.38474   10.11638
      H1   -18.62905   17.02546    9.79031
       H   -16.14000   16.80089    6.92662
       O   -16.34441   17.60489    6.41246
      H1   -16.33422   17.38577    5.44069
       H   -15.03626   14.93802    7.16814
       O   -15.67980   15.31116    7.79737
      H1   -16.13726   14.57648    8.22351
       H   -18.79140   13.73686    8.43771
       O   -18.17936   13.84142    7.74611
      H1   -18.36349   14.69617    7.31744
       H   -15.85174   18.93868   14.65705
       O   -16.23737   19.67439   14.17223
      H1   -15.51068   20.12610   13.72712
       H   -18.71106   14.51697   13.91862
       O   -19.01593   14.95047   13.04370
      H1   -18.56587   15.84418   13.05935
       H   -15.30719   19.74731    9.56641
       O   -14.38425   19.65588    9.87388
      H1   -14.29727   18.79445   10.28207
       H   -17.14940   14.31524   11.11418
       O   -16.51162   14.98458   10.78696
      H1   -15.60056   14.81616   11.07982
       H   -18.01647   16.76593    6.35925
       O   -18.73695   16.17276    6.41528
      H1   -19.31407   16.52744    7.11158
       H   -18.09332   17.60759   11.92690
       O   -18.30766   17.72343   12.86999
      H1   -17.49541   18.23436   13.19613
       H   -19.07271   12.47001   10.93944
       O   -18.79139   13.39529   10.78874
      H1   -18.97672   13.88555   11.60050
       H   -16.75352   12.78955    8.18534
       O   -15.98484   12.44007    8.61574
      H1   -15.44894   12.05052    7.89779

