42
frame 4 | Written by MDAnalysis XYZWriter (release 2.4.3)
       H   -13.74267  -11.48108    9.96554
       O   -13.69309  -12.23104    9.37259
      H1   -13.55400  -11.84168    8.50238
       H    -6.80188   -8.11770   10.95912
       O    -7.69625   -8.03372   10.56266
      H1    -8.20260   -8.87547   10.63289
       H   -13.54314  -11.27689   15.47123
       O   -12.94588  -11.74715   16.09038
      H1   -12.48445  -11.20031   16.72488
       H    -9.94951  -10.46242   10.99427
       O    -9.06639  -10.40494   10.61238
      H1    -9.23802  -10.60272    9.70206
       H    -8.42512  -12.18361   11.34424
       O    -8.00549  -12.95376   11.68282
      H1    -7.17914  -12.52927   12.16401
       H   -12.28277  -10.21566   11.49087
       O   -11.47064  -10.67148   11.68399
      H1   -11.72482  -11.60015   11.96185
       H   -11.44379  -12.29541   14.99886
       O   -10.71913  -12.80061   14.67742
      H1   -10.62662  -12.55444   13.78612
       H   -15.07407  -12.91484   12.69071
       O   -15.34771  -11.98061   12.74469
      H1   -16.19449  -11.77777   12.32074
       H   -13.03570   -7.49061   12.48656
       O   -13.72580   -7.54141   13.15177
      H1   -13.86540   -6.63527   13.34288
       H   -14.68633   -9.71632   11.55582
       O   -14.34509   -9.90039   10.70457
      H1   -14.34509   -9.09094   10.10967
       H   -11.13282  -14.19832   11.32190
       O   -11.65154  -13.52719   11.76581
      H1   -12.43091  -14.05400   12.18646
       H   -10.01829   -8.25188   13.44127
       O   -10.70660   -8.69959   13.99579
      H1   -11.09513   -9.46798   13.50903
       H   -12.35945  -13.07611    8.53723
       O   -11.46867  -13.30028    8.13436
      H1   -11.73074  -13.55767    7.23366
       H   -14.91719  -10.79784   13.83690
       O   -14.61180  -10.20034   14.56359
      H1   -13.99065   -9.52514   14.32098

