42
frame 4 | Written by MDAnalysis XYZWriter (release 2.4.3)
       H    -6.39181    4.43713   10.48580
       O    -5.40730    4.59529   10.60955
      H1    -5.05904    3.84352   11.06181
       H    -9.22940    8.97494    7.26130
       O    -8.37643    8.62618    7.36424
      H1    -8.50898    7.98235    8.09070
       H    -2.14852    4.57473   10.03147
       O    -2.69930    3.94013    9.45900
      H1    -3.59274    3.94647    9.80549
       H    -5.85544    9.28203   10.60685
       O    -6.32177   10.02394   10.91079
      H1    -6.39289   10.01868   11.87899
       H    -5.17052    6.81692   10.63575
       O    -5.65390    7.50124   10.16805
      H1    -4.91038    7.82938    9.53878
       H    -8.21222    5.22259    9.41763
       O    -8.04451    4.27551    9.44411
      H1    -7.43283    4.11757    8.71552
       H    -3.71085   11.72189   10.73883
       O    -3.04766   11.11817   11.15172
      H1    -3.37520   10.18483   11.16288
       H    -1.62571    6.77182    8.73259
       O    -2.16838    6.99770    7.91562
      H1    -1.71933    6.61080    7.16331
       H    -7.27171    5.93124    5.87040
       O    -7.21551    6.83341    5.61001
      H1    -7.55058    7.28745    6.38296
       H    -5.18104    5.23496    8.06312
       O    -5.88932    4.95114    7.45482
      H1    -5.41702    4.59834    6.72165
       H    -3.43753    9.94457    9.12812
       O    -3.70754    9.05217    8.95722
      H1    -3.02322    8.59883    8.51075
       H    -9.08505    6.99380   10.28870
       O    -8.50014    6.84409    9.53023
      H1    -7.59023    7.07835    9.81844
       H    -5.48317   12.85446    9.65240
       O    -5.38821   12.64927   10.56732
      H1    -5.69047   11.71018   10.55639
       H    -4.26859    8.31932    6.41333
       O    -4.05549    8.49336    5.49202
      H1    -3.35605    9.19567    5.38810

