42
frame 0 | Written by MDAnalysis XYZWriter (release 2.4.3)
       H    11.99302    4.15516   17.22013
       O    11.37624    4.87770   17.49618
      H1    10.64787    4.45208   17.96420
       H    10.93400    6.59155   17.34240
       O    10.57839    7.50534   17.31347
      H1    11.19037    8.12175   17.61496
       H    14.35555    3.35848   17.16482
       O    13.76869    2.61822   17.03168
      H1    14.05840    2.15269   16.23323
       H    10.95444    3.26337   15.00265
       O    10.65276    3.70157   14.22811
      H1    10.77833    3.05258   13.52552
       H     6.46742    4.70499   17.95214
       O     6.37948    5.53375   18.39909
      H1     5.88876    6.16156   17.80208
       H     6.43362    3.14151   14.28758
       O     5.65514    2.65462   14.59479
      H1     5.64715    2.75855   15.52738
       H     5.60784    1.78481   17.53411
       O     6.11697    2.46670   17.17204
      H1     6.95221    2.01030   17.11119
       H     4.23631    0.16819   18.63819
       O     3.99743    1.04460   18.27196
      H1     4.32110    1.67871   18.95651
       H     8.86770    3.96831   14.25056
       O     7.89025    3.99623   14.04380
      H1     7.47541    4.80368   14.39855
       H     8.88591    3.05033   17.74928
       O     9.02114    3.69498   18.48144
      H1     8.27002    3.45361   19.05512
       H    11.55099    1.35206   19.67275
       O    11.05238    0.92514   18.97518
      H1    11.71907    0.61912   18.36790
       H     7.88662    6.45920   18.65838
       O     8.47550    7.07099   19.08699
      H1     9.20722    7.17739   18.47400
       H     7.77553    8.50237   19.52794
       O     7.66120    9.47696   19.73198
      H1     8.60499    9.79398   19.64590
       H     9.05993    0.84084   16.16094
       O     8.97472    1.41833   16.94631
      H1     9.06295    0.87142   17.73707

