42
frame 4 | Written by MDAnalysis XYZWriter (release 2.4.3)
       H   -16.87150   -5.28290   -2.82425
       O   -17.62044   -5.71148   -2.42543
      H1   -18.41013   -5.21284   -2.75315
       H   -16.92615   -4.98774   -6.58722
       O   -17.12184   -5.24768   -5.68237
      H1   -17.34082   -4.36073   -5.28729
       H   -14.52538   -4.95430   -3.56494
       O   -15.41198   -4.68320   -3.59388
      H1   -15.62320   -4.97464   -4.54015
       H   -19.72604   -4.05166   -9.96321
       O   -18.76352   -4.20245  -10.03701
      H1   -18.35130   -4.37304   -9.15020
       H   -16.48905   -5.61955   -8.94893
       O   -16.77374   -4.90738   -8.33221
      H1   -16.23100   -4.11203   -8.61228
       H   -18.78846   -8.22489   -0.85765
       O   -19.16267   -7.40451   -0.54944
      H1   -18.65478   -6.73401   -0.93531
       H   -19.95203   -1.99821   -7.07484
       O   -19.23602   -2.69418   -7.03081
      H1   -18.38759   -2.29439   -7.29667
       H   -18.00208   -7.54223   -8.77664
       O   -17.95057   -8.17296   -8.05238
      H1   -18.40714   -7.73951   -7.33523
       H   -18.30333   -2.68957   -5.65319
       O   -17.95814   -2.83968   -4.75202
      H1   -17.08423   -2.45145   -4.72249
       H   -15.09472   -7.88991   -4.83048
       O   -14.38880   -7.25816   -4.98258
      H1   -14.01945   -7.51756   -5.84793
       H   -16.05850   -9.70199   -5.54649
       O   -15.99387   -9.59833   -4.61058
      H1   -16.89410   -9.43771   -4.29280
       H   -17.43468  -10.48439   -1.73989
       O   -17.77188   -9.65032   -2.05731
      H1   -18.72182   -9.84978   -2.26273
       H   -19.91436   -7.11843   -5.33707
       O   -19.28359   -6.91958   -6.00070
      H1   -18.54329   -6.47795   -5.57799
       H   -17.20981  -11.18167   -7.33531
       O   -16.55844  -10.44484   -7.39269
      H1   -17.04865   -9.65616   -7.67784

