42
frame 4 | Written by MDAnalysis XYZWriter (release 2.4.3)
       H    20.21691  -18.10822   -2.78943
       O    19.63501  -17.73837   -3.43601
      H1    18.87432  -17.87327   -2.89736
       H    12.11477  -14.30521   -1.76793
       O    12.21891  -14.85861   -2.57193
      H1    12.67430  -15.62944   -2.27162
       H    14.01021  -17.03604   -5.49325
       O    13.41944  -17.69351   -5.08070
      H1    12.51997  -17.32977   -5.04100
       H    15.49036  -15.30167   -6.39283
       O    15.58826  -16.22683   -6.11906
      H1    16.00092  -16.77208   -6.77504
       H    13.65751  -17.85975   -2.47398
       O    13.82590  -17.15110   -1.82873
      H1    13.73932  -17.52070   -0.92007
       H    18.26543  -18.72396   -6.24031
       O    18.67958  -19.35060   -5.56706
      H1    19.15287  -18.74153   -4.96380
       H    16.49312  -14.46408   -2.42583
       O    16.71000  -13.80910   -1.74954
      H1    16.28321  -12.98829   -2.06388
       H    14.09458  -13.67323   -6.23664
       O    14.85865  -13.61249   -6.82775
      H1    15.28251  -12.77231   -6.60131
       H    13.01842  -13.95300   -3.78214
       O    13.48002  -13.27356   -4.31159
      H1    14.42537  -13.18746   -4.06275
       H    19.16173  -13.14066   -3.87013
       O    18.49486  -12.58433   -3.51733
      H1    18.03872  -13.13325   -2.87785
       H    14.33074  -19.08694   -5.57833
       O    14.76459  -19.74801   -6.10661
      H1    14.08750  -19.83972   -6.78330
       H    15.59978  -16.18242   -4.19957
       O    15.92151  -16.05982   -3.27479
      H1    15.21945  -16.43918   -2.74180
       H    16.81971  -17.49380   -1.63608
       O    17.56640  -18.14507   -1.69393
      H1    17.21414  -18.93094   -2.13176
       H    16.60607  -18.77080   -8.39563
       O    16.64830  -18.31477   -7.57666
      H1    16.09099  -18.80457   -7.03895

