42
frame 5 | Written by MDAnalysis XYZWriter (release 2.4.3)
       H   -16.04002   13.53170   11.64581
       O   -15.95402   12.61529   11.35846
      H1   -16.19391   12.64215   10.44383
       H   -18.93403   11.09601    6.30202
       O   -19.34413   11.15127    7.19824
      H1   -19.15036   11.99227    7.61274
       H   -15.50280    8.28155   10.11985
       O   -14.70669    8.81483    9.96084
      H1   -14.63401    9.42259   10.73165
       H   -17.12951    9.63415    8.90974
       O   -17.62581    9.31418    8.15547
      H1   -17.92853   10.13924    7.75520
       H   -13.54154   15.71812    7.55010
       O   -14.25154   16.30710    7.75023
      H1   -14.88042   15.92038    8.35606
       H   -14.27988   10.25438   12.70897
       O   -13.98696   10.65352   11.85164
      H1   -14.62873   11.30600   11.50647
       H   -16.40155   13.53695   14.83274
       O   -17.32551   13.47186   14.45799
      H1   -17.26097   12.77052   13.79897
       H   -12.81781   13.43117   12.14748
       O   -12.73186   14.13311   11.47074
      H1   -12.76354   13.63635   10.63701
       H   -19.03289   13.81892    9.20306
       O   -18.84320   13.60996    8.25266
      H1   -19.18307   14.27926    7.68678
       H   -14.39541   15.14515   11.70039
       O   -15.36170   15.29435   11.86125
      H1   -15.47645   16.14068   12.38795
       H   -16.27986   14.58725    9.08835
       O   -16.27502   15.49575    9.34717
      H1   -15.94379   15.63497   10.26095
       H   -19.55799   13.19368   11.19934
       O   -19.56023   13.97994   10.65400
      H1   -18.99557   14.61254   11.16043
       H   -13.03918   12.46485    8.34026
       O   -13.10654   13.29429    8.90709
      H1   -12.34836   13.85303    8.60071
       H   -17.26655   13.27925    8.49698
       O   -16.39802   12.87757    8.61154
      H1   -15.97451   13.17714    7.74728

