42
frame 4 | Written by MDAnalysis XYZWriter (release 2.4.3)
       H    -5.17148  -17.02120   10.16022
       O    -5.18608  -16.48930    9.38533
      H1    -4.63615  -16.98578    8.80351
       H    -6.35373  -16.80590    5.68082
       O    -5.49441  -16.46873    5.24038
      H1    -5.91310  -15.63875    4.80963
       H    -6.99258  -12.15876    6.02535
       O    -6.94204  -11.86315    5.13066
      H1    -7.74348  -11.98517    4.58231
       H    -3.91604  -10.82314    6.49768
       O    -3.68827  -10.02562    5.97266
      H1    -3.30560  -10.31588    5.16370
       H    -3.91572  -16.07824    6.03437
       O    -3.21559  -15.59983    6.59718
      H1    -2.56048  -15.51185    5.92674
       H    -4.06776  -15.34217    9.90655
       O    -3.77070  -14.46549   10.24042
      H1    -2.78937  -14.42228   10.19842
       H    -7.42686  -10.15932    6.13518
       O    -8.29734   -9.68928    6.24850
      H1    -8.56534   -9.51534    5.34250
       H    -3.88208  -14.15330    5.77644
       O    -4.20831  -13.28518    5.44333
      H1    -4.77471  -13.37323    4.64790
       H    -6.54953  -13.03245    3.84573
       O    -6.08327  -13.66688    3.30482
      H1    -6.58555  -14.47476    3.05654
       H    -3.21347   -8.71006    9.36439
       O    -3.99799   -9.28388    9.25183
      H1    -3.91439   -9.63198    8.37098
       H    -8.46103  -15.05967    9.34208
       O    -7.76966  -15.17299    8.67099
      H1    -6.93345  -15.18340    9.08436
       H    -4.64972  -12.64252    8.92892
       O    -4.87788  -12.27368    8.03737
      H1    -4.43613  -12.83721    7.37560
       H    -7.67925  -13.46856    8.13255
       O    -7.46668  -12.53544    7.86088
      H1    -6.54090  -12.44725    8.01620
       H    -4.51011  -11.34628   11.42487
       O    -3.53673  -11.39116   11.17215
      H1    -3.51223  -10.72051   10.48921

