42
frame 4 | Written by MDAnalysis XYZWriter (release 2.4.3)
       H     6.20401  -17.19101   13.56045
       O     6.45884  -16.31626   13.14321
      H1     5.63934  -16.06217   12.70284
       H     6.51124  -19.63762   14.04482
       O     5.88019  -18.95075   13.73199
      H1     5.19068  -18.92155   14.42251
       H     2.62079  -20.14344   13.16122
       O     2.24535  -19.26637   13.20655
      H1     2.75916  -18.75217   13.89292
       H    -1.22702  -16.21477   14.30722
       O    -1.66210  -16.86184   14.88998
      H1    -2.55660  -16.57643   14.90485
       H     3.83438  -19.64953   15.90010
       O     3.97905  -18.75028   15.65988
      H1     4.56076  -18.42981   16.39286
       H     2.73003  -18.72994   11.65274
       O     2.94305  -18.14332   10.88613
      H1     2.74350  -18.57167   10.08850
       H     2.04819  -16.70533   17.62071
       O     2.06243  -15.68806   17.63107
      H1     1.73577  -15.35737   16.74240
       H     1.29066  -15.42417   10.66671
       O     0.96515  -16.13984   10.06917
      H1     1.33823  -16.91309   10.53634
       H     3.35003  -15.85298   15.70995
       O     4.19045  -15.55629   15.37818
      H1     4.03407  -15.66119   14.44229
       H    -2.23993  -18.30329   13.89785
       O    -2.52336  -19.19263   13.58033
      H1    -1.68823  -19.65817   13.29629
       H     3.34544  -18.32124   18.23392
       O     2.45510  -18.46550   17.91731
      H1     2.55048  -18.68827   16.96545
       H     0.90942  -19.57183   14.38981
       O     0.43767  -19.49697   15.20704
      H1    -0.04465  -18.69931   15.19814
       H     5.69275  -19.02428   11.75902
       O     6.07597  -19.15044   10.89063
      H1     5.27008  -19.13437   10.32298
       H     3.68022  -15.07911   11.64734
       O     3.76476  -15.75712   12.39659
      H1     3.57518  -16.55845   11.88729

