42
frame 5 | Written by MDAnalysis XYZWriter (release 2.4.3)
       H    -7.15537   11.17837  -12.29451
       O    -7.25064   12.18214  -12.27589
      H1    -8.13262   12.32681  -11.86001
       H   -12.69387   14.10172  -10.60878
       O   -13.25759   13.53707  -10.09070
      H1   -13.76600   13.02507  -10.74392
       H   -10.14996   16.72316   -9.38420
       O   -10.52282   17.05519  -10.25236
      H1    -9.79112   16.98599  -10.91986
       H   -11.44976   15.38415  -14.45864
       O   -11.01674   14.51614  -14.16864
      H1   -10.30798   14.60759  -14.79275
       H    -8.97114   17.84875  -13.31332
       O    -8.73902   17.70172  -12.39182
      H1    -7.87577   17.25407  -12.27621
       H   -12.68114   13.41228  -14.17372
       O   -13.55365   12.95569  -14.25244
      H1   -13.69662   12.76793  -15.20587
       H   -12.29136   16.31017  -17.86399
       O   -11.55346   15.85858  -17.45901
      H1   -11.57999   14.92761  -17.69205
       H    -8.01293   16.57952  -15.80139
       O    -8.52184   15.78216  -15.66679
      H1    -7.94722   15.18878  -15.03803
       H   -11.39384   16.96629  -15.44275
       O   -11.90789   17.23325  -14.68046
      H1   -12.82881   17.19912  -14.94670
       H   -13.84581   11.43114  -16.79963
       O   -13.45126   10.63943  -16.39603
      H1   -12.62935   10.93120  -15.97406
       H   -10.60363   18.28774  -14.54536
       O    -9.78403   18.81147  -14.56542
      H1    -9.80806   19.60219  -14.00050
       H   -11.13605   14.82252  -12.47998
       O   -11.25737   14.84554  -11.49613
      H1   -11.11203   15.80173  -11.18953
       H    -8.09903   12.17114  -15.00579
       O    -8.99061   12.49059  -15.10285
      H1    -9.36435   12.57877  -14.24823
       H   -10.20015   13.59192  -10.77932
       O    -9.39889   13.08018  -10.38657
      H1    -8.75367   13.75865  -10.28342

