42
frame 5 | Written by MDAnalysis XYZWriter (release 2.4.3)
       H     9.52591   17.46839    2.76939
       O     8.80400   17.99544    3.00244
      H1     8.38326   17.50250    3.68881
       H    10.56096   19.33543    1.03674
       O    11.33943   19.54896    1.48667
      H1    11.25477   19.23683    2.39046
       H     7.40184   17.23651   -2.18438
       O     6.73181   16.60550   -2.41610
      H1     6.79094   15.91297   -1.64256
       H     4.70070   14.65260    1.81793
       O     4.79130   15.41111    1.22730
      H1     4.56209   16.18878    1.76286
       H     7.57944   16.79172    0.55121
       O     7.87060   15.95755    0.12540
      H1     8.79467   15.93510    0.33893
       H    10.37941   16.44929   -1.85036
       O    10.79960   17.02426   -1.20685
      H1    10.13310   17.78983   -1.08128
       H     7.44728   15.04939    3.36212
       O     7.67623   15.37692    4.27706
      H1     6.94849   14.91212    4.76085
       H     9.66287   15.14421   -3.53086
       O     9.88717   14.72070   -2.72058
      H1     9.16236   14.16268   -2.39407
       H     8.05922   11.91811   -1.84461
       O     7.82642   12.86764   -1.69545
      H1     8.04747   13.00585   -0.72123
       H     6.76350   19.45438    1.12971
       O     7.04714   18.52636    1.17972
      H1     7.75363   18.64688    1.85547
       H     8.44617   18.90644    0.10034
       O     9.21119   19.18657   -0.46479
      H1     8.82006   19.94605   -0.85810
       H    11.72774   12.61855    0.51838
       O    11.30907   12.74089   -0.37940
      H1    11.92683   13.28714   -0.91018
       H     8.61135   13.54356    1.91497
       O     7.73942   13.68631    1.53789
      H1     7.78727   14.48103    0.99868
       H    10.64840   16.15495    0.63309
       O    10.30687   15.83462    1.48197
      H1    10.63265   14.91036    1.61201

