42
frame 4 | Written by MDAnalysis XYZWriter (release 2.4.3)
       H     1.74062   11.53366   -5.54095
       O     2.61896   11.26470   -5.93737
      H1     3.05583   12.01055   -6.37290
       H    -0.54803    7.79102   -3.79173
       O    -0.18401    7.46801   -4.61595
      H1    -0.37010    8.07722   -5.34451
       H    -4.23338    7.23852   -5.95146
       O    -3.91825    8.13464   -6.16382
      H1    -4.70472    8.62064   -6.40743
       H    -4.01087    9.14488   -4.61643
       O    -4.16248    9.88284   -3.97902
      H1    -4.91617    9.50302   -3.55042
       H     0.90830    8.88881   -9.04418
       O     0.21892    8.37951   -9.57921
      H1     0.56180    7.46568   -9.62871
       H    -0.69113    5.80897   -2.58022
       O    -1.05352    4.94064   -2.35640
      H1    -1.62610    4.87598   -1.53362
       H    -0.31699    5.31287   -7.11061
       O     0.53021    5.47483   -6.64630
      H1     0.34044    5.91100   -5.81638
       H    -0.42448   12.22201   -4.97319
       O    -0.06372   12.43750   -5.85630
      H1    -0.76427   12.32287   -6.54562
       H    -1.65172    9.71325   -7.05073
       O    -1.43196    9.36730   -6.15268
      H1    -2.15468    8.71938   -5.89529
       H     2.48208    6.05916   -3.92430
       O     1.88636    6.51007   -3.29219
      H1     1.30384    7.06282   -3.83763
       H     0.12781   11.72159   -2.49578
       O    -0.47454   11.67977   -3.28266
      H1    -1.27824   11.36894   -2.83249
       H     0.26580    9.70267   -6.94724
       O     1.03664    9.80944   -7.50646
      H1     1.66869   10.29435   -6.93007
       H     3.07291    5.17738   -8.45598
       O     2.62543    6.05242   -8.41947
      H1     1.80232    5.96585   -7.92548
       H     0.41450    8.70846   -1.98756
       O    -0.46271    8.33538   -2.13763
      H1    -1.20746    8.95446   -2.13307

