42
frame 5 | Written by MDAnalysis XYZWriter (release 2.4.3)
       H    12.34157    5.67531   -7.02482
       O    12.04862    4.79823   -6.74369
      H1    12.03195    4.88217   -5.79705
       H     8.66829   10.50265   -6.38943
       O     8.38719   11.34531   -5.98532
      H1     7.45442   11.21177   -5.84214
       H    11.01569    7.58792   -2.52072
       O    11.06513    7.57249   -1.56318
      H1    10.32885    6.94863   -1.33380
       H     9.54921   10.56734   -3.11148
       O     8.61807   10.51649   -3.46578
      H1     8.66878   11.06153   -4.24044
       H    11.14186   10.88584   -1.20526
       O    11.10520   10.19853   -1.88759
      H1    11.01465    9.33968   -1.41952
       H     7.74104    7.02639   -1.25924
       O     8.51954    6.73086   -0.73613
      H1     8.12559    6.03837   -0.14620
       H     9.04689    8.13346   -5.62933
       O     8.73954    8.48802   -6.48583
      H1     7.79055    8.56928   -6.32176
       H    11.84607    6.06038   -3.30354
       O    12.27534    5.81742   -4.12300
      H1    12.58855    6.63387   -4.52140
       H     9.00522    5.50287   -6.38563
       O     9.38491    4.92083   -7.04982
      H1    10.31067    4.77868   -6.83023
       H     5.40724    7.92718   -5.83336
       O     6.15335    8.20259   -5.32399
      H1     5.83204    9.10820   -4.93086
       H     6.17935    7.58983   -2.30379
       O     6.64361    7.07952   -2.95440
      H1     6.38727    7.46802   -3.82400
       H    14.30173    7.71588   -4.59588
       O    13.57026    8.36382   -4.73274
      H1    13.68439    8.99475   -3.97282
       H     9.20240    6.86327   -3.96434
       O     9.64849    7.73307   -4.09267
      H1     9.12194    8.29221   -3.54763
       H     9.16706    4.54423   -3.27940
       O     8.66006    5.04003   -3.90895
      H1     7.94183    5.43122   -3.43577

