42
frame 0 | Written by MDAnalysis XYZWriter (release 2.4.3)
       H   -15.04700   -5.86086    9.32931
       O   -15.70501   -6.53980    9.28091
      H1   -16.53341   -6.12539    8.96906
       H   -13.14196   -4.17477    9.59917
       O   -13.28805   -5.15293    9.33663
      H1   -12.65653   -5.17323    8.59269
       H   -10.66062   -4.02461    4.33986
       O   -11.13730   -3.45602    5.03603
      H1   -11.39304   -4.09504    5.78008
       H   -14.86040   -4.02135    4.20828
       O   -15.46232   -3.52047    3.62623
      H1   -15.19041   -3.73337    2.71168
       H   -13.64773   -5.95356    5.02277
       O   -14.16686   -5.21093    5.40336
      H1   -13.74024   -4.72024    6.16244
       H   -16.21966   -2.09950    6.85072
       O   -16.06027   -2.52336    7.74778
      H1   -15.05280   -2.55327    7.85253
       H   -12.08423   -9.13156    6.98206
       O   -12.72116   -9.38639    6.27501
      H1   -12.80844   -8.60970    5.76504
       H   -16.47007   -0.48313    5.06612
       O   -16.71599   -1.40669    5.13026
      H1   -16.01987   -1.83669    4.62829
       H   -18.30443   -4.47312    8.77344
       O   -17.55460   -4.73460    8.23045
      H1   -17.05484   -3.90267    8.20285
       H   -12.59471   -7.37818    3.80841
       O   -13.36138   -7.56528    4.36613
      H1   -14.00986   -8.08053    3.89831
       H   -10.19734   -8.40087    8.30177
       O   -11.12658   -8.28695    8.37580
      H1   -11.24317   -7.49636    7.84701
       H   -16.12051   -5.08771    5.25408
       O   -17.02504   -5.23354    5.51468
      H1   -17.14173   -5.07564    6.45758
       H   -11.00694   -5.92681    6.45847
       O   -11.43359   -5.47225    7.22352
      H1   -10.63758   -5.13321    7.67225
       H   -13.50823   -2.05364    6.60178
       O   -13.55443   -2.82599    7.21856
      H1   -13.20209   -2.53164    8.06529

