42
frame 6 | Written by MDAnalysis XYZWriter (release 2.4.3)
       H     8.00548   -4.97874  -15.20072
       O     7.90559   -4.14307  -15.73602
      H1     7.15284   -3.68426  -15.40409
       H    10.11313   -8.09642  -17.30379
       O    10.02650   -8.56935  -18.12020
      H1     9.82494   -7.89830  -18.78303
       H     8.10707   -1.96966  -19.10975
       O     8.90669   -2.10858  -18.55944
      H1     9.47267   -2.64756  -19.11860
       H     9.48114   -0.63220  -17.82695
       O     9.90663    0.05501  -17.27935
      H1    10.17330   -0.35446  -16.44312
       H     4.43262   -5.39125  -17.96287
       O     5.09835   -5.50311  -17.28802
      H1     5.78517   -5.11059  -17.80551
       H    10.36240   -5.09515  -16.05643
       O    11.06030   -4.55067  -16.48252
      H1    10.97602   -3.65222  -16.09240
       H     5.43439   -3.15908  -14.21693
       O     6.00758   -2.42935  -14.52589
      H1     5.46666   -1.71872  -14.88292
       H     5.65328   -7.71680  -15.01117
       O     6.02835   -7.69543  -15.87837
      H1     5.68301   -6.94258  -16.32553
       H     8.95462   -1.21443  -14.62038
       O     8.42383   -0.41298  -14.42647
      H1     8.36170   -0.50865  -13.45370
       H    10.39441   -2.63196  -14.35154
       O    10.15564   -2.37048  -15.28010
      H1     9.50440   -2.95151  -15.62342
       H     3.97098   -4.97090  -13.95337
       O     4.79111   -4.89556  -14.49150
      H1     4.61812   -4.94947  -15.44262
       H    10.06222   -7.52845  -15.06131
       O     9.38969   -6.82842  -15.32741
      H1     8.56494   -7.21408  -15.04127
       H    10.57135   -4.58098  -19.47909
       O    10.80517   -3.67142  -19.66572
      H1    11.30088   -3.47804  -18.82765
       H     7.94409   -4.30224  -17.58007
       O     7.54775   -4.71459  -18.36226
      H1     7.26370   -4.03460  -18.99805

