42
frame 6 | Written by MDAnalysis XYZWriter (release 2.4.3)
       H    13.29515    5.32416   15.58673
       O    12.55099    4.78150   15.36119
      H1    11.85367    5.29042   15.10565
       H    10.19808    6.78749   18.44302
       O    10.60246    6.14176   18.95471
      H1    10.63965    5.32832   18.45537
       H    10.62519    8.59189   17.58669
       O     9.69493    8.28420   17.61261
      H1     9.27675    8.74466   18.33544
       H    11.42771    3.46857   16.97160
       O    10.48848    3.55165   17.26796
      H1    10.36401    2.77798   17.85465
       H     7.85725   13.05221   17.62742
       O     8.29665   12.19542   17.47992
      H1     9.21684   12.49233   17.74398
       H    12.43436    8.09199   14.63426
       O    11.88969    7.99749   13.87534
      H1    11.04480    8.20287   14.26264
       H     9.59828    7.97519   15.92846
       O     9.33694    8.01669   14.96960
      H1     8.91732    7.19141   14.63565
       H    15.11862    6.90896   18.76065
       O    15.92246    7.13043   18.35507
      H1    15.52125    7.65282   17.65937
       H     9.17482   12.75330   15.05083
       O     8.44292   12.99235   14.53452
      H1     7.63647   12.65353   14.95438
       H    14.17909   11.27859   15.53902
       O    13.61417   10.47664   15.58050
      H1    13.45608   10.30581   14.65594
       H     7.00133    9.31395   19.00119
       O     6.73759   10.01823   18.38414
      H1     7.46672   10.61616   18.25583
       H    14.77319    7.20729   15.70232
       O    14.06753    7.78707   15.99499
      H1    14.12634    8.62978   15.62784
       H     8.14149    9.42771   15.00223
       O     7.32216    9.79574   15.41811
      H1     7.35476    9.36340   16.26145
       H    12.70495    9.58546   17.34297
       O    12.13649    9.29842   18.04773
      H1    12.63668    8.53384   18.35377

