42
frame 5 | Written by MDAnalysis XYZWriter (release 2.4.3)
       H    -6.33095   12.76859   15.44037
       O    -6.92700   12.68583   16.18605
      H1    -7.18391   13.56089   16.44377
       H    -5.78379   17.65478   12.37487
       O    -6.06022   17.10769   13.14358
      H1    -6.47464   16.29634   12.84533
       H    -7.87116   16.64583   19.81546
       O    -6.95890   16.60329   19.45905
      H1    -7.02755   16.87748   18.51622
       H    -8.32642   14.80805   12.81460
       O    -7.39219   14.70621   12.79563
      H1    -7.32052   14.24624   13.67680
       H    -3.99282   13.46551   18.84139
       O    -3.37345   12.76991   18.47626
      H1    -3.41430   11.93734   18.88887
       H    -4.42044   12.03310   14.08970
       O    -5.26135   12.25641   13.65945
      H1    -5.15662   12.33057   12.69980
       H    -8.83029   15.75531   15.72458
       O    -8.70947   14.77550   15.84901
      H1    -8.93149   14.61078   16.77392
       H    -8.90458   17.65869   15.99308
       O    -9.68989   17.22216   15.53668
      H1    -9.76788   17.67275   14.66566
       H    -3.82173   19.59961   14.62212
       O    -4.30993   18.79157   14.84167
      H1    -4.39096   18.32603   13.99462
       H    -5.81132   16.13688   14.82298
       O    -5.71139   15.94532   15.76656
      H1    -4.85257   16.28286   15.98190
       H    -7.74408   18.44400   13.07747
       O    -8.50015   19.08966   13.07762
      H1    -8.70957   19.13701   12.10232
       H    -3.28811   17.68144   15.84433
       O    -2.99027   16.87980   16.30590
      H1    -2.32097   17.13504   16.96895
       H    -6.73368   17.18656   16.48804
       O    -7.31756   17.79932   16.96061
      H1    -6.73847   18.48735   17.23348
       H    -2.21366   15.88971   14.94571
       O    -1.74478   15.87531   14.15558
      H1    -2.23580   16.41663   13.53734

