42
frame 6 | Written by MDAnalysis XYZWriter (release 2.4.3)
       H    18.99377  -10.68734   13.49868
       O    19.81617  -11.28956   13.64618
      H1    19.45459  -12.14957   13.86559
       H    16.69994  -11.12217   14.08440
       O    16.43876  -11.87380   14.68538
      H1    15.54745  -11.62680   15.07503
       H    18.32275  -11.19608   10.48711
       O    17.57604  -11.78163   10.20990
      H1    17.82914  -12.04952    9.33717
       H    15.81938  -12.03591   18.72916
       O    16.40577  -12.79112   18.57247
      H1    16.99342  -12.37344   17.96056
       H    18.82693  -11.69172   16.69183
       O    17.99737  -11.20563   16.89473
      H1    17.53437  -11.46611   16.08372
       H    17.71406  -13.17147   14.30171
       O    18.15203  -13.75555   13.68206
      H1    17.58118  -14.49783   13.72879
       H    15.56213   -9.26718   16.33796
       O    15.56852   -8.35107   16.17820
      H1    14.81566   -8.13067   16.73138
       H    20.31833   -8.99746   16.47553
       O    19.57589   -8.70050   17.09044
      H1    18.97612   -9.48427   17.07113
       H    17.07444  -14.24081   10.80151
       O    17.07993  -15.16951   10.66856
      H1    17.15000  -15.63543   11.47201
       H    19.62879  -15.97503    9.90479
       O    19.80354  -15.02180    9.93128
      H1    19.00260  -14.50892    9.84600
       H    17.70833   -8.89784   13.50684
       O    17.42076   -9.72589   13.04207
      H1    16.80615   -9.62885   12.31557
       H    18.12574   -6.64558   13.70739
       O    18.49187   -7.43468   14.18386
      H1    19.44164   -7.19528   14.20227
       H    15.83519  -10.73209   10.37934
       O    15.69720   -9.80047   10.73439
      H1    15.04449   -9.49916   10.05003
       H    18.41758   -8.27013    9.32488
       O    17.98640   -8.13573   10.20808
      H1    17.26060   -8.78705   10.32783

