42
frame 5 | Written by MDAnalysis XYZWriter (release 2.4.3)
       H    19.55108   17.29407   17.54380
       O    19.55041   17.46811   16.59916
      H1    18.87333   16.84981   16.30029
       H    17.56382   18.61042   18.73861
       O    17.19569   17.73430   18.52861
      H1    16.94029   17.82202   17.62873
       H    19.64826    8.47528   18.06692
       O    19.17871    7.65417   18.06236
      H1    18.27452    7.89590   18.27178
       H    14.31498   14.42541   17.30262
       O    15.26239   14.86262   17.25013
      H1    15.17026   15.56686   17.88248
       H    17.03413   17.75995   14.84354
       O    16.46142   17.75830   15.59757
      H1    15.54596   17.45881   15.33178
       H    19.29807   14.71475   13.39719
       O    18.54113   14.05569   13.60087
      H1    18.65672   13.28777   13.07113
       H    14.64727   11.26649   14.91755
       O    14.14585   10.42211   14.98989
      H1    13.59734   10.32020   14.20392
       H    18.19314   14.57066   15.27017
       O    18.01049   15.07742   16.12424
      H1    17.14106   14.77366   16.44038
       H    14.45047   12.18396   19.83849
       O    14.42460   11.84584   18.92644
      H1    15.25670   11.39447   18.78108
       H    17.44802   12.05601   17.25372
       O    16.85659   11.28818   17.17402
      H1    16.37686   11.46203   16.34937
       H    18.87797   13.74876   16.92715
       O    19.12833   12.90579   17.35831
      H1    19.25834   13.13275   18.27476
       H    17.99873    7.36055   14.73674
       O    18.85009    7.35573   15.20011
      H1    18.84268    7.63915   16.11322
       H    16.76517   13.14893   14.30630
       O    15.93394   12.91724   14.72997
      H1    15.46360   13.70951   14.95813
       H    16.65553    9.84779   17.99998
       O    16.38683    8.97729   18.40525
      H1    16.65211    9.12880   19.32871

