42
frame 5 | Written by MDAnalysis XYZWriter (release 2.4.3)
       H    -0.11472  -12.82832    6.48935
       O    -0.11662  -11.92087    6.84759
      H1     0.77781  -11.64056    6.83682
       H    -5.72284  -17.52021    5.81071
       O    -4.91893  -16.91241    5.69731
      H1    -5.27079  -16.06809    5.41733
       H    -6.99425  -12.40556    5.62497
       O    -6.74559  -12.18603    4.70393
      H1    -7.60005  -12.45399    4.20472
       H    -3.48851  -10.33418    6.91298
       O    -3.05089   -9.74053    6.28136
      H1    -3.00767  -10.15135    5.38885
       H     0.21866  -14.49778    4.87919
       O     0.86469  -14.48084    5.60507
      H1     1.71024  -14.11777    5.24774
       H    -3.24350  -16.26016    7.14068
       O    -2.30053  -16.17814    7.28119
      H1    -2.09144  -16.86570    6.66359
       H    -3.92483  -14.96871    9.91431
       O    -3.43836  -14.19417   10.21334
      H1    -2.49835  -14.64645   10.15532
       H    -2.33637  -17.13285    4.50041
       O    -1.98243  -17.77870    5.17139
      H1    -1.02835  -17.85829    4.95714
       H    -2.91210  -14.71238    6.56913
       O    -3.28147  -13.90016    6.15188
      H1    -3.99723  -14.13531    5.51889
       H    -5.98761  -13.75040    4.27905
       O    -5.49286  -14.57157    4.31698
      H1    -6.00370  -15.16859    3.67704
       H    -3.60754  -10.31164    3.01703
       O    -3.34216  -10.99974    3.67339
      H1    -3.96255  -11.72759    3.55603
       H    -0.77084  -13.31964    3.49214
       O    -1.22693  -14.13692    3.78032
      H1    -1.92715  -13.96646    4.46044
       H    -3.63433  -11.85358    8.88857
       O    -3.92302  -11.64048    7.97677
      H1    -3.50593  -12.34271    7.46660
       H    -6.92252  -13.53036    7.51502
       O    -6.71110  -12.60852    7.38091
      H1    -5.76184  -12.68032    7.47447

