42
frame 5 | Written by MDAnalysis XYZWriter (release 2.4.3)
       H     9.55484   -1.35303  -18.02729
       O     9.37402   -0.71491  -17.34543
      H1     9.58688   -1.16275  -16.51937
       H     5.61997    3.70291  -13.74803
       O     5.84720    2.98962  -14.35518
      H1     6.69382    2.58452  -14.14516
       H     8.91095    4.38833  -14.06727
       O     9.22626    4.80892  -13.27062
      H1     9.64172    5.63860  -13.65324
       H     7.91460    3.94624  -15.91817
       O     8.64503    3.29933  -15.86237
      H1     8.21594    2.44409  -15.74654
       H    10.06647    5.18249  -18.36528
       O     9.36951    4.71910  -17.92044
      H1     9.72968    4.38604  -17.09460
       H     6.89066    2.06910  -18.87155
       O     7.49394    2.75432  -19.18996
      H1     7.63646    3.26111  -18.37192
       H     8.27870    2.12839  -11.31884
       O     8.76295    2.10482  -12.21033
      H1     8.92743    3.03203  -12.29915
       H     7.21224    0.22688  -15.20795
       O     6.48710   -0.08335  -15.81346
      H1     7.06427   -0.34838  -16.56326
       H     7.61850    5.72509  -17.10955
       O     6.97074    5.34926  -16.49487
      H1     6.61481    6.09921  -16.02634
       H     9.09883   -0.09560  -14.72032
       O     8.89679    0.80143  -14.74052
      H1     9.08328    1.13273  -13.85731
       H    12.09267    2.42617  -15.19529
       O    11.52369    2.94382  -14.53625
      H1    10.61467    2.60004  -14.79214
       H    12.12101    0.32913  -18.58253
       O    11.46189    1.00973  -18.21507
      H1    10.68663    0.48228  -17.94044
       H     4.94286    4.76820  -16.06374
       O     4.00323    4.78907  -15.90691
      H1     3.74627    5.05099  -16.78632
       H     4.30482    1.43231  -16.22420
       O     3.47707    1.97275  -16.26258
      H1     3.75820    2.79950  -15.90246

