42
frame 0 | Written by MDAnalysis XYZWriter (release 2.4.3)
       H    -9.27032   -4.90428  -16.13225
       O    -9.67784   -5.74857  -15.75865
      H1   -10.05410   -6.13720  -16.57285
       H    -7.34822   -3.17396  -16.59560
       O    -8.26755   -3.51755  -16.86942
      H1    -8.87137   -2.82512  -16.60224
       H   -11.09754   -5.47867  -18.24813
       O   -11.04102   -6.43415  -18.00453
      H1   -11.06439   -6.95522  -18.87354
       H   -12.25954   -6.10441  -13.77433
       O   -11.92679   -5.26005  -14.11870
      H1   -11.18589   -5.51863  -14.68227
       H    -7.91378   -3.08579  -18.67470
       O    -7.71316   -2.76590  -19.54441
      H1    -7.66170   -3.48702  -20.20858
       H   -11.24864   -2.11642  -13.08108
       O   -10.78148   -2.90664  -13.40928
      H1   -11.36759   -3.69126  -13.33780
       H    -7.83597   -0.47764  -12.82883
       O    -7.61443   -1.28143  -13.41739
      H1    -8.44243   -1.63507  -13.70958
       H    -6.60237   -6.55864  -17.15682
       O    -7.05235   -6.83446  -16.35440
      H1    -7.83549   -6.22314  -16.21393
       H   -14.07814   -5.31646  -17.52894
       O   -13.94830   -6.20682  -17.03247
      H1   -13.02499   -6.48979  -17.14710
       H   -13.55267   -2.82781  -15.56260
       O   -12.82306   -3.33942  -15.84866
      H1   -12.72641   -4.11126  -15.24546
       H   -10.40646   -1.50412  -17.19963
       O   -10.35702   -1.86635  -16.25815
      H1   -11.14635   -2.42435  -16.11834
       H    -9.37678   -4.03062  -12.40226
       O    -8.76225   -4.21297  -11.65572
      H1    -9.39814   -4.42499  -10.98976
       H    -5.51514   -5.17294  -18.12112
       O    -6.16513   -5.41854  -18.77548
      H1    -5.79653   -6.16101  -19.24720
       H    -7.53685   -5.53894  -12.59076
       O    -7.38932   -6.21038  -13.29618
      H1    -8.21426   -6.24398  -13.77370

