42
frame 5 | Written by MDAnalysis XYZWriter (release 2.4.3)
       H    16.32529    9.53190   -6.63553
       O    15.85490   10.24099   -7.11138
      H1    15.20391   10.58757   -6.49094
       H    12.97987   12.01289   -4.77773
       O    13.35867   12.70969   -4.23171
      H1    12.73803   13.15851   -3.62752
       H    16.45510   11.11752   -3.90003
       O    15.72201   10.54936   -4.21917
      H1    14.94038   10.60515   -3.63050
       H    15.54677   11.14824    0.91822
       O    16.24086   10.76704    0.41485
      H1    16.15937   11.44889   -0.29819
       H    16.14971    6.80685   -5.32494
       O    15.65399    6.55058   -4.54873
      H1    15.48209    5.60241   -4.43905
       H    17.98611   12.79879   -6.42469
       O    17.54520   12.45400   -7.16312
      H1    17.08328   11.65177   -6.93243
       H    18.26379   12.75868   -3.59221
       O    17.82557   12.08952   -2.99110
      H1    17.46759   12.55952   -2.23772
       H    14.44272   13.94728   -5.29399
       O    14.88549   14.65240   -5.78076
      H1    15.03494   14.29566   -6.68422
       H    12.25764   10.51912   -6.31363
       O    13.12789   10.78211   -6.00927
      H1    13.53055   10.08650   -5.48955
       H    18.47099    9.38346   -3.32406
       O    17.95761    8.86260   -3.99846
      H1    17.16812    9.37865   -4.08786
       H    15.48357    7.65540   -0.60100
       O    14.64308    7.90207   -1.01970
      H1    14.15595    7.05950   -1.15902
       H    12.80037   10.16178   -2.28790
       O    13.77836   10.13334   -2.34873
      H1    14.06374    9.30757   -1.94778
       H    14.30173    7.71588   -4.59588
       O    13.57026    8.36382   -4.73274
      H1    13.68439    8.99475   -3.97282
       H    14.89813   13.32815   -2.02471
       O    15.22404   12.55128   -1.65517
      H1    14.66793   11.82959   -1.96011

