42
frame 5 | Written by MDAnalysis XYZWriter (release 2.4.3)
       H   -12.07295   10.56611    3.74006
       O   -12.59676   11.36163    3.60217
      H1   -13.03589   11.28629    2.72906
       H   -11.97245    9.03404   -0.48439
       O   -11.10754    9.12297   -0.88569
      H1   -10.66029    8.24971   -0.67660
       H    -9.89567    6.78588    5.09488
       O    -9.40428    7.00943    4.29242
      H1    -8.55568    7.29817    4.70822
       H    -8.12592   10.47388   -0.04136
       O    -8.90818   10.86232    0.27378
      H1    -9.58953   10.17083    0.26294
       H   -11.36475   10.15581    7.53942
       O   -10.59218    9.94942    6.94110
      H1   -10.89938   10.01402    6.01411
       H    -6.96201    8.22644    1.59907
       O    -7.48898    8.28611    0.84908
      H1    -6.93635    8.37024    0.12419
       H    -8.81611   13.03335    2.62740
       O    -8.54255   12.05549    2.68946
      H1    -8.67828   11.56268    1.86080
       H    -6.85644    8.61032    4.03725
       O    -6.07299    8.47243    3.54402
      H1    -5.34004    8.53365    4.14614
       H    -9.21077   12.54795   -0.20702
       O    -9.31507   13.50655   -0.42238
      H1    -9.13972   13.60214   -1.38546
       H    -5.74372   12.83369    3.79942
       O    -5.94667   12.76742    2.85505
      H1    -6.87180   12.51939    2.81199
       H    -9.78904   14.00192    3.48456
       O    -9.32227   14.69354    3.05785
      H1    -9.58116   14.69468    2.12172
       H   -11.28758   12.45148    4.14321
       O   -10.68984   13.09448    4.51053
      H1   -10.04953   12.82762    5.19967
       H    -9.86262   10.43189    3.14748
       O   -10.32400    9.78362    3.66146
      H1   -10.14608    8.90821    3.31551
       H    -9.80661   12.73660    7.76381
       O    -9.23555   12.54992    7.01081
      H1    -9.42687   11.60274    6.88055

