42
frame 5 | Written by MDAnalysis XYZWriter (release 2.4.3)
       H     9.27335  -12.09307    8.24962
       O     9.35659  -13.03550    8.11296
      H1     8.68420  -13.59859    8.49566
       H     8.78960  -13.04580    0.06606
       O     8.04192  -13.04783   -0.55537
      H1     7.73916  -12.15951   -0.37400
       H    11.52101  -14.36134    2.26961
       O    12.02668  -14.83910    2.93773
      H1    12.18883  -15.72024    2.50089
       H     9.27263  -14.21706    6.67868
       O     9.06176  -14.61372    5.83784
      H1     8.48262  -13.97693    5.36656
       H     5.48265   -8.70333    2.82825
       O     5.86856   -9.55761    2.57119
      H1     6.81123   -9.45927    2.56840
       H     8.63479  -12.29779    3.85865
       O     8.02995  -13.04789    4.00822
      H1     7.88120  -13.35733    3.11552
       H     5.31150  -16.47579    0.96278
       O     4.82820  -15.93790    1.60104
      H1     5.56647  -15.33166    1.73359
       H     8.25793  -15.01121    1.44059
       O     7.34720  -14.59886    1.43581
      H1     7.26011  -13.90403    0.67800
       H     9.63452  -10.17629    2.65412
       O     9.95463  -10.93125    3.09971
      H1    10.81160  -10.71923    3.47593
       H     6.05382  -11.68433    6.40978
       O     5.28693  -12.22216    6.22761
      H1     4.95907  -12.49436    7.10828
       H     6.43987  -15.96598    4.21813
       O     6.24306  -16.70984    4.75747
      H1     7.01122  -17.27308    4.73140
       H     4.03920  -12.55392    5.09353
       O     3.09028  -12.79467    4.91876
      H1     3.02066  -13.03766    3.99077
       H    10.19748  -12.14026    1.86648
       O    10.15236  -12.95479    1.31518
      H1    10.89565  -12.94955    0.64450
       H     9.25053  -17.04479    4.31229
       O     9.30851  -16.55408    3.51179
      H1     9.38941  -15.67367    3.87232

