42
frame 6 | Written by MDAnalysis XYZWriter (release 2.4.3)
       H     5.44330  -15.55102  -17.07976
       O     5.76814  -14.80160  -16.55589
      H1     6.70554  -14.69332  -16.60689
       H     6.38389  -13.74147  -12.74444
       O     5.44443  -13.66995  -12.54190
      H1     5.16403  -12.75052  -12.71125
       H     3.44704  -17.11851  -17.98797
       O     4.44391  -17.25665  -17.82816
      H1     4.45953  -17.99272  -17.22083
       H     5.14558  -11.62029  -14.62042
       O     5.18106  -11.69533  -15.54103
      H1     5.49137  -12.56068  -15.73301
       H     9.46585  -14.15853  -18.90736
       O     9.30028  -13.22599  -18.98387
      H1     8.41607  -13.01956  -18.69446
       H     1.52749  -15.40064  -14.94908
       O     2.11634  -15.24290  -15.68873
      H1     2.92479  -15.66676  -15.31309
       H     1.86251  -15.93606  -17.33323
       O     2.07054  -16.08400  -18.27990
      H1     2.58610  -15.31124  -18.54727
       H     7.74139  -18.32667  -16.26410
       O     7.43098  -19.22291  -16.03503
      H1     7.63449  -19.80409  -16.78762
       H     4.32617  -17.30084  -15.30239
       O     4.36334  -16.50941  -14.75565
      H1     5.07554  -15.84976  -15.07639
       H     3.67837  -13.08445  -18.42837
       O     4.24102  -13.83610  -18.63913
      H1     4.54949  -13.98748  -17.73158
       H     6.68355  -11.31215  -18.01095
       O     6.59304  -12.02242  -18.61088
      H1     5.74379  -12.42908  -18.46695
       H     8.13662  -14.81256  -13.50701
       O     8.14678  -13.86456  -13.15134
      H1     8.49366  -13.84784  -12.25467
       H     8.36519  -17.78850  -19.06658
       O     7.86468  -17.20684  -18.45314
      H1     7.23005  -16.77163  -19.06700
       H     8.80911  -16.26592  -15.01988
       O     8.03782  -16.25687  -14.42511
      H1     8.12993  -16.98003  -13.79564

