42
frame 6 | Written by MDAnalysis XYZWriter (release 2.4.3)
       H    18.14842   -9.12060   -8.02794
       O    18.01194  -10.03606   -7.69115
      H1    17.60686   -9.88426   -6.83703
       H    17.03255  -10.74085   -0.23485
       O    17.39291  -10.35725    0.60481
      H1    16.75380  -10.74909    1.17025
       H    17.10922   -5.65032   -4.75231
       O    17.95444   -5.72769   -4.36026
      H1    17.88399   -5.63639   -3.42409
       H    16.20181  -11.57548   -4.15620
       O    15.49285  -12.11908   -3.72947
      H1    15.29062  -11.45810   -3.07693
       H    19.01545   -6.22545   -1.45307
       O    18.15715   -5.88320   -1.68808
      H1    18.14434   -4.99827   -1.21454
       H    14.48693   -9.77178   -1.23307
       O    15.06965   -9.84383   -2.00409
      H1    15.84743   -9.34696   -1.75019
       H    15.76202   -4.29745   -5.13370
       O    15.32533   -5.14652   -5.13042
      H1    15.31819   -5.30630   -4.19058
       H    14.15854   -8.00780   -5.03046
       O    14.71016   -7.85340   -5.82325
      H1    14.80276   -6.88341   -5.83960
       H    19.44995   -8.25709   -3.56992
       O    19.37090   -7.96602   -4.56514
      H1    18.85943   -7.15742   -4.61008
       H    19.24408  -13.39135   -4.61256
       O    18.51619  -12.83206   -4.33114
      H1    17.91922  -13.28381   -3.67940
       H    19.30358  -11.31097   -8.23680
       O    19.88572  -12.00215   -8.52364
      H1    19.90736  -12.78150   -7.96151
       H    16.14687   -8.66729   -5.23147
       O    16.96227   -9.09530   -4.86467
      H1    17.68209   -8.45498   -5.02864
       H    17.48537   -7.42608   -0.64645
       O    16.73669   -7.83286   -0.25719
      H1    16.97684   -8.70021    0.06569
       H    18.84856  -11.41873   -3.18149
       O    19.18443  -11.04295   -2.28300
      H1    19.41548  -11.87041   -1.82447

