42
frame 5 | Written by MDAnalysis XYZWriter (release 2.4.3)
       H     0.39832    3.15028    2.48139
       O     0.12583    4.09531    2.25866
      H1     0.88832    4.50532    1.80872
       H    -0.44140    5.09230    4.56611
       O    -0.02931    5.17285    5.41301
      H1     0.90669    5.14802    5.26318
       H     0.31328   -3.10389    2.83931
       O     0.96054   -2.80762    3.45849
      H1     0.49771   -2.25318    4.17687
       H    -3.72671    1.31779    5.04754
       O    -4.62340    1.54714    4.75706
      H1    -5.21620    0.81109    4.76787
       H    -1.61700    4.78968    2.81214
       O    -2.36304    5.37739    3.08421
      H1    -2.97663    4.80408    3.51527
       H     0.73711   -0.40887    5.93346
       O    -0.11509   -0.76749    5.59436
      H1    -0.73780   -0.03248    5.71841
       H    -4.77004   -2.12783    5.52744
       O    -3.92113   -1.75827    5.31900
      H1    -3.27585   -2.47853    5.50715
       H    -1.73143    3.37528    7.64410
       O    -1.04094    3.09378    7.08915
      H1    -0.88796    3.94476    6.56718
       H     0.80017    3.03149    7.86120
       O     1.73061    2.88680    8.13938
      H1     2.23914    2.83195    7.31920
       H    -2.65004    0.66062    0.07366
       O    -2.33879    1.18281    0.86860
      H1    -3.12614    1.33016    1.39914
       H    -1.49502    1.95683    5.96330
       O    -1.74068    1.24577    5.36612
      H1    -1.25049    1.36599    4.52059
       H    -4.92757    4.73398    4.33314
       O    -4.11854    4.32785    4.70221
      H1    -4.29136    3.36409    4.57673
       H    -0.62765    0.98045    2.09120
       O     0.08926    1.31265    2.69850
      H1     0.85308    0.73930    2.45182
       H    -3.96059   -1.79006    3.56002
       O    -3.90692   -2.10247    2.56768
      H1    -4.50106   -1.60013    2.02311

