42
frame 0 | Written by MDAnalysis XYZWriter (release 2.4.3)
       H    -2.99539    2.83032   -3.14153
       O    -3.86636    2.44209   -2.99600
      H1    -4.09026    2.78442   -2.14275
       H    -2.69057    1.27299    3.55943
       O    -2.63267    1.81733    2.78415
      H1    -3.50863    1.86052    2.34837
       H    -4.49954    2.56776    0.44531
       O    -4.80595    1.71720    0.84064
      H1    -4.78787    1.00033    0.27413
       H    -1.86297    0.48931   -1.57311
       O    -1.10469    1.07900   -1.45766
      H1    -0.39989    0.73955   -2.00611
       H    -7.50745    3.02067    1.97871
       O    -7.33945    2.15837    1.49321
      H1    -6.37956    2.22367    1.27987
       H    -4.19208   -0.70800   -0.71121
       O    -4.70348   -0.81519    0.17634
      H1    -5.60660   -1.10179   -0.05461
       H    -6.87583    1.18279   -2.38849
       O    -6.90628    1.97468   -1.87789
      H1    -6.81477    1.78425   -0.91447
       H    -7.56023    0.18829    4.16154
       O    -7.77140    0.01691    3.25747
      H1    -7.38457    0.68498    2.69283
       H    -8.02608   -1.79196   -0.93101
       O    -7.60250   -1.22755   -0.23980
      H1    -7.96614   -1.64847    0.58140
       H    -0.69007    1.70566    0.27397
       O    -0.56027    2.09099    1.17132
      H1    -1.40265    2.01398    1.69032
       H    -4.89547    5.10610    0.36158
       O    -4.53478    4.38845   -0.18131
      H1    -3.56911    4.51380   -0.24659
       H    -3.50403   -0.83552    3.29416
       O    -3.38487   -1.36865    2.56434
      H1    -3.90376   -0.97639    1.87197
       H    -2.88157   -0.50793   -2.84421
       O    -3.42799   -0.02948   -2.22094
      H1    -3.52816    0.89010   -2.64974
       H    -9.13730    0.22332   -0.40536
       O    -9.44587    1.08136   -0.16138
      H1    -8.74089    1.35971    0.43950

