42
frame 5 | Written by MDAnalysis XYZWriter (release 2.4.3)
       H   -16.51632    6.32000    9.25756
       O   -16.62270    6.66544   10.14451
      H1   -17.60337    6.63127   10.38903
       H   -16.10602    4.81203    6.71242
       O   -15.50830    4.07896    6.95565
      H1   -15.22757    4.12281    7.89250
       H   -13.82210   10.33023    7.15487
       O   -13.26253   10.11956    7.94643
      H1   -13.85722    9.67363    8.59963
       H   -10.22919    8.07076    9.59077
       O   -10.67234    7.49200    8.93680
      H1   -11.64794    7.61879    9.07853
       H   -15.54812    3.94688   10.23893
       O   -14.93516    4.04571    9.46600
      H1   -14.57644    3.16429    9.43099
       H   -15.50280    8.28155   10.11985
       O   -14.70669    8.81483    9.96084
      H1   -14.63401    9.42259   10.73165
       H   -10.16202    4.27388    7.58548
       O   -10.01822    3.57334    8.25853
      H1    -9.10946    3.66075    8.58116
       H    -8.92444    5.91719   12.55116
       O    -9.34429    6.49323   11.92204
      H1    -9.94146    5.80737   11.55545
       H   -10.59358    6.31732    7.43035
       O   -10.64367    5.80970    6.61005
      H1   -11.64605    5.77902    6.47560
       H   -15.99982    6.64937   11.87297
       O   -15.87472    6.89996   12.79809
      H1   -15.21887    6.23371   13.12624
       H   -11.01426    3.95782    9.73833
       O   -11.25742    4.46869   10.54249
      H1   -11.97237    3.97834   10.92004
       H   -17.05923    7.30527    7.56626
       O   -17.07594    6.40924    7.39841
      H1   -18.04426    6.33048    7.32822
       H   -13.67925    4.43884    5.29851
       O   -13.34818    5.35699    5.47032
      H1   -13.77629    5.69895    6.28935
       H   -13.92854    7.38914    8.67778
       O   -13.54180    6.69644    8.10825
      H1   -13.33503    5.95233    8.71734

