42
frame 6 | Written by MDAnalysis XYZWriter (release 2.4.3)
       H     7.25681    8.42099  -16.06581
       O     8.06126    8.83917  -16.34749
      H1     7.99274    8.95659  -17.28847
       H     3.80600    8.77111  -16.85475
       O     4.02290    8.06013  -17.53819
      H1     4.76611    8.47097  -18.02846
       H     8.78782    3.90434  -14.46641
       O     8.24991    4.51287  -13.94727
      H1     8.47369    5.33640  -14.30758
       H     9.72141   12.65893  -17.29724
       O     9.05015   11.93178  -17.35378
      H1     8.79932   11.79866  -16.42026
       H     9.67271    5.51381  -18.73713
       O     9.23216    5.53978  -17.88106
      H1     9.60838    6.30952  -17.38935
       H     6.91876    4.96980  -16.45940
       O     6.21008    4.52761  -16.00007
      H1     6.71918    4.30129  -15.19483
       H     9.46855    7.76360  -15.10573
       O    10.10646    7.33078  -14.48792
      H1    10.56100    8.02472  -14.01135
       H     4.86927   11.17439  -14.96710
       O     5.08862   10.34358  -14.39739
      H1     5.88711   10.56481  -13.98341
       H     4.96522    7.49578  -16.07849
       O     5.57647    7.59006  -15.33218
      H1     5.53907    8.50439  -15.10157
       H     6.94810    6.79403  -11.95382
       O     6.57613    7.55932  -12.42490
      H1     6.00917    7.99314  -11.74912
       H    10.35018   10.46383  -16.59810
       O    11.02651    9.89170  -16.28886
      H1    11.36695   10.33535  -15.47495
       H     6.45421    7.39254  -19.78706
       O     7.00001    7.67929  -19.05055
      H1     7.48845    6.86635  -18.77154
       H     8.43079   11.46990  -14.43510
       O     7.90724   11.31350  -15.22748
      H1     7.96978   10.43183  -15.55731
       H     4.46611    7.39143  -14.11481
       O     3.79027    7.04128  -13.52094
      H1     3.62894    7.76357  -12.94264

