42
frame 7 | Written by MDAnalysis XYZWriter (release 2.4.3)
       H   -16.74195   -5.11309   -7.74227
       O   -17.39835   -5.41173   -7.08554
      H1   -17.31417   -4.94357   -6.25010
       H   -16.04639   -5.84453  -14.86169
       O   -16.61472   -6.63338  -14.88544
      H1   -17.35669   -6.31756  -14.34861
       H   -19.63576   -4.28874  -10.29041
       O   -18.86589   -3.74790  -10.29670
      H1   -18.13109   -4.30672  -10.02812
       H   -15.39930   -5.04789   -9.48615
       O   -16.25921   -4.71134   -9.20082
      H1   -16.18856   -3.72375   -9.15661
       H   -15.59720  -10.09075  -11.88743
       O   -15.79396  -11.02937  -11.70303
      H1   -15.14599  -11.36197  -12.34678
       H   -13.03605   -8.44038   -9.83283
       O   -13.08287   -7.47068   -9.79677
      H1   -12.26334   -7.23167  -10.27170
       H   -14.56113   -7.10511   -7.96175
       O   -15.16620   -7.46384   -7.30155
      H1   -15.96675   -6.86887   -7.26996
       H   -15.99901   -8.02209  -14.01862
       O   -16.10549   -8.80933  -13.50303
      H1   -16.75270   -9.16612  -14.04157
       H   -19.25098   -7.14151  -13.35141
       O   -18.54945   -6.82564  -12.82219
      H1   -18.71622   -7.34178  -12.00305
       H   -18.12207   -7.93563   -9.29024
       O   -18.16658   -8.00365  -10.26146
      H1   -17.25871   -7.80450  -10.52925
       H   -15.07629   -7.28477  -10.70764
       O   -15.79037   -6.97257  -11.25276
      H1   -15.76286   -7.58283  -12.06493
       H   -19.23215   -8.18601   -6.28170
       O   -19.15723   -7.66725   -7.10270
      H1   -18.50741   -6.89042   -6.92213
       H   -17.36474   -9.92056   -7.61296
       O   -16.46414   -9.81757   -7.25721
      H1   -16.14516   -8.93623   -7.51257
       H   -13.79975   -5.84905  -13.57979
       O   -14.59922   -5.36055  -13.43564
      H1   -14.72884   -5.52706  -12.49052

