42
frame 7 | Written by MDAnalysis XYZWriter (release 2.4.3)
       H     1.37545   -6.84586   14.63005
       O     1.80898   -6.59603   15.46966
      H1     2.74059   -6.60338   15.24926
       H    -1.15526  -13.80180   19.84703
       O    -1.36377  -12.84643   19.54730
      H1    -0.68298  -12.50197   18.88210
       H     0.19394  -10.19779   17.00836
       O    -0.17474   -9.37624   16.66005
      H1    -0.53137   -8.77927   17.35340
       H     6.60693  -11.72934   18.55498
       O     6.27366  -11.38341   17.70091
      H1     6.71330  -10.58115   17.52287
       H     4.74411   -9.85952   14.61163
       O     5.05288   -9.25815   13.89450
      H1     4.51013   -9.40624   13.12704
       H     3.66360   -9.98145   16.39386
       O     4.10010  -10.73430   16.00559
      H1     4.84817  -11.06106   16.59967
       H     3.46186   -9.43960   19.63698
       O     2.50924   -9.44353   19.53093
      H1     2.32935   -9.11768   18.68894
       H     4.53431   -7.21675   19.28114
       O     4.28761   -6.65454   18.54417
      H1     5.12775   -6.66379   18.04741
       H     3.04363  -13.79401   16.56064
       O     2.54291  -13.04159   16.23163
      H1     3.21554  -12.29131   16.31543
       H    -0.29079   -4.75974   18.80865
       O     0.42598   -5.41436   18.70133
      H1     0.28773   -5.85665   17.83149
       H     7.48042   -8.29171   17.25526
       O     7.69071   -9.09010   16.79402
      H1     8.55953   -9.45121   17.02430
       H     7.19089   -6.36057   16.93449
       O     6.97269   -6.44197   17.87671
      H1     7.13916   -5.57867   18.25134
       H     2.36827   -8.03166   16.26205
       O     2.93773   -8.56990   16.90259
      H1     3.34608   -7.82568   17.44199
       H     1.35134  -12.25503   17.37173
       O     0.61826  -11.89737   17.96161
      H1     0.99702  -11.89622   18.85561

