42
frame 6 | Written by MDAnalysis XYZWriter (release 2.4.3)
       H   -17.64238   18.20774   -5.86648
       O   -17.30080   19.00221   -5.51210
      H1   -17.67891   19.80378   -5.82329
       H   -18.65072   19.61024  -12.12995
       O   -19.08127   18.96994  -12.68588
      H1   -19.61962   18.33064  -12.11938
       H   -14.43700   15.61874  -12.74301
       O   -14.16491   15.56806  -11.77942
      H1   -13.31023   15.14276  -11.87914
       H   -15.98414   18.81113  -12.38385
       O   -16.48770   17.99291  -12.49785
      H1   -17.37523   18.44434  -12.53791
       H   -14.14340   16.68796   -7.16022
       O   -13.50403   16.59079   -6.41550
      H1   -13.83713   15.86076   -5.90463
       H   -19.33765   13.99626  -11.89850
       O   -18.78183   13.97582  -11.08806
      H1   -18.79515   14.90172  -10.78970
       H   -18.70285   16.11263   -5.48217
       O   -18.45119   16.40660   -6.35366
      H1   -17.84719   15.74170   -6.65781
       H   -16.43939   18.56703  -10.29791
       O   -16.68143   18.28906   -9.42444
      H1   -16.40135   19.00057   -8.85484
       H   -15.54591   18.70469   -4.98967
       O   -14.68306   18.40229   -4.55171
      H1   -14.25084   17.81427   -5.21339
       H   -18.31382   17.45116   -9.49529
       O   -18.88748   16.69794   -9.52153
      H1   -19.13346   16.53408   -8.60827
       H   -15.59019   16.67512   -9.42414
       O   -15.01756   16.22154   -8.81986
      H1   -14.50988   15.53021   -9.17892
       H   -11.47737   20.01547  -10.69508
       O   -12.03768   19.37675  -10.17498
      H1   -11.55149   18.53175  -10.36790
       H   -15.89463   16.17364  -14.93662
       O   -15.16121   16.63228  -14.52292
      H1   -15.53749   17.24869  -13.87619
       H   -16.06972   15.00028   -8.17123
       O   -16.78584   14.42130   -7.86285
      H1   -16.29712   13.91968   -7.12154

