42
frame 6 | Written by MDAnalysis XYZWriter (release 2.4.3)
       H   -14.81776   12.92496    2.23778
       O   -15.51124   13.63410    2.33399
      H1   -15.12470   14.43818    1.95442
       H   -16.92150   12.99221    1.63565
       O   -17.67909   12.64350    1.16931
      H1   -17.49595   12.88980    0.20710
       H   -18.52905   11.50374    5.06651
       O   -18.69096   11.53633    6.01001
      H1   -18.65759   12.43382    6.33423
       H   -18.13068   14.70111    2.02892
       O   -18.69900   15.37792    2.41479
      H1   -19.08381   15.01876    3.20151
       H   -14.50428   15.82849    0.87768
       O   -15.34981   15.94540    1.26837
      H1   -16.02377   15.86413    0.52929
       H   -12.73963   12.91706    1.52266
       O   -13.00256   12.10274    2.02261
      H1   -13.45314   11.46301    1.45234
       H   -14.90774   12.76338   -1.83727
       O   -14.01255   12.36079   -1.71573
      H1   -13.51092   12.93097   -1.07995
       H   -15.38320   10.78807   -1.73168
       O   -15.55960    9.83376   -1.89996
      H1   -16.27864    9.68417   -2.47784
       H   -14.22933    9.35633    1.42184
       O   -13.96205   10.01383    0.81358
      H1   -14.71317   10.03170    0.25002
       H   -17.61048   10.82949    2.91957
       O   -18.39268   10.93564    3.47157
      H1   -19.14525   10.53506    3.02081
       H   -16.80096   14.19103   -1.06303
       O   -16.65978   13.29191   -1.40189
      H1   -17.30671   13.27400   -2.19687
       H   -15.79608   13.42301    4.36715
       O   -15.53171   13.00575    5.19292
      H1   -15.25532   12.07565    5.02025
       H   -17.13421   17.00174   -1.03154
       O   -17.52748   16.13103   -1.01436
      H1   -18.41946   16.31374   -0.63771
       H   -17.19654    9.76334   -0.06007
       O   -16.80489   10.09270    0.71925
      H1   -17.35756   10.93676    0.84306

