42
frame 6 | Written by MDAnalysis XYZWriter (release 2.4.3)
       H    15.58534    2.78468  -17.56613
       O    16.36526    3.25300  -17.89154
      H1    16.41998    2.96772  -18.83694
       H    14.89778   -0.83889  -16.12570
       O    14.98431   -0.07507  -15.60127
      H1    15.96212    0.13810  -15.38697
       H    13.62897    1.59217  -17.71697
       O    14.04328    2.05890  -16.97044
      H1    14.32479    1.34885  -16.33130
       H    18.00689   -0.36159  -14.51006
       O    17.59780    0.45780  -14.86146
      H1    17.76512    0.46875  -15.83621
       H    15.07234   -3.36547  -18.66961
       O    14.26256   -2.84376  -18.54039
      H1    14.12663   -2.76405  -17.58615
       H    14.71025   -2.55960  -14.71843
       O    14.42782   -2.92816  -15.56369
      H1    14.27608   -3.85295  -15.45329
       H    17.87152   -4.91891  -17.52009
       O    17.05864   -4.48704  -17.80955
      H1    17.09836   -3.65112  -17.30355
       H    16.72887    4.90837  -17.73889
       O    17.22620    5.77529  -17.63844
      H1    17.48998    6.22081  -18.51191
       H    18.37080   -1.68965  -16.39086
       O    17.57949   -2.02359  -16.80986
      H1    17.44270   -1.56615  -17.63477
       H    16.48608    3.34734  -14.16821
       O    16.93718    2.74187  -13.63089
      H1    17.21409    1.96643  -14.15891
       H    17.77024    0.05474  -18.76606
       O    17.42706   -0.70490  -19.25216
      H1    16.65246   -0.43140  -19.76515
       H    12.66132    0.10535  -19.57308
       O    12.29886    0.71478  -18.89865
      H1    11.60599    0.10902  -18.51012
       H    19.03274   -3.38372  -14.57343
       O    19.26142   -4.29719  -14.52351
      H1    19.09014   -4.49460  -13.60174
       H    19.10334    1.44706  -17.49858
       O    18.16072    1.26144  -17.59375
      H1    17.63980    2.05300  -17.76907

