42
frame 7 | Written by MDAnalysis XYZWriter (release 2.4.3)
       H    17.30791   15.82228    3.09466
       O    16.98016   15.63474    2.20353
      H1    17.54002   14.91009    1.76479
       H    16.47670   13.17914    4.29286
       O    17.05616   12.49455    3.81326
      H1    16.63268   11.64753    3.74571
       H    14.07914   16.34307    8.10156
       O    14.14705   16.08179    9.03800
      H1    15.09327   15.82235    9.21560
       H    16.97738   14.38517    9.31993
       O    17.03282   15.37066    9.44842
      H1    17.08363   15.65102   10.40401
       H    17.95944   11.76564    5.67903
       O    17.54491   11.41068    6.48493
      H1    18.21931   10.84484    6.85330
       H    13.64427   17.35386    5.82944
       O    14.47369   17.34694    6.31405
      H1    14.57425   18.26137    6.65427
       H    17.55924   12.02846    9.54618
       O    17.18445   12.73448    9.01980
      H1    17.34872   12.39029    8.10853
       H    15.65552   15.18833    5.20651
       O    15.47004   14.25911    5.27829
      H1    15.96698   13.90229    6.08209
       H    12.51068   19.17980    9.22899
       O    13.19275   19.84932    9.25902
      H1    13.87984   19.46017    8.64098
       H    17.98156   19.83972    8.44707
       O    17.48166   19.20753    7.85991
      H1    17.62257   19.63147    7.00641
       H    19.01578   15.00542    5.36231
       O    18.29985   14.95127    4.67167
      H1    18.14632   14.01268    4.44020
       H    18.17797   16.13170    8.28787
       O    18.61226   16.79998    7.66874
      H1    18.14985   17.59861    7.74799
       H    16.11184   17.57732    5.30980
       O    16.91883   17.60199    4.75640
      H1    17.58840   17.17263    5.27368
       H    17.34648   17.05009   12.87377
       O    17.10928   16.20616   12.59342
      H1    17.57001   15.49247   13.12523

