42
frame 6 | Written by MDAnalysis XYZWriter (release 2.4.3)
       H    -1.25345    3.89451   13.19615
       O    -1.36907    4.06708   14.12225
      H1    -0.74497    3.47170   14.59831
       H    -4.12658    3.49935   17.40901
       O    -3.26351    3.85429   17.61442
      H1    -3.00921    4.45585   16.92926
       H     0.05135    1.03993   14.86285
       O     0.11261    1.84633   15.38555
      H1    -0.38356    1.80357   16.20112
       H    -3.82626    6.31115   19.26932
       O    -3.54583    5.50851   19.66787
      H1    -3.38497    4.94655   18.91469
       H    -6.65467    5.29118   18.34534
       O    -7.17956    5.04813   19.08274
      H1    -7.00603    4.07273   19.22929
       H    -5.97108    5.33166   15.62850
       O    -5.55016    5.59320   16.44652
      H1    -4.69582    5.74309   16.12586
       H    -0.60089    5.96268   18.36624
       O    -0.48669    6.36195   17.47897
      H1    -0.09601    7.19475   17.58667
       H    -4.27885    0.88835   17.50075
       O    -3.71553    0.26552   17.06053
      H1    -2.83462    0.30363   17.51441
       H    -2.46602    6.23369   14.95094
       O    -2.68406    6.25579   15.90584
      H1    -1.84713    6.22678   16.39839
       H     1.11632    5.88731   15.43682
       O     1.29981    6.30094   14.64654
      H1     1.70638    7.19934   14.87387
       H    -1.88575    2.89637   17.79600
       O    -1.10927    2.27914   17.83898
      H1    -0.55589    2.61911   18.55826
       H    -2.43552    2.61674   14.49489
       O    -3.07224    1.87229   14.47842
      H1    -2.96678    1.42977   15.37098
       H    -6.07710    2.30906   17.95017
       O    -5.48768    2.38148   17.16090
      H1    -6.03167    2.37773   16.36801
       H    -4.72870    8.35497   17.82767
       O    -4.47900    8.63394   18.72287
      H1    -5.21628    9.00755   19.18107

