42
frame 7 | Written by MDAnalysis XYZWriter (release 2.4.3)
       H    -7.06659   -7.13333    9.77285
       O    -8.01272   -7.20299    9.69105
      H1    -8.22073   -8.14754    9.66391
       H    -4.26759   -5.53575   12.79027
       O    -4.24950   -5.17457   11.88616
      H1    -4.68791   -5.79736   11.27465
       H    -6.83770   -3.78681   10.84883
       O    -6.76340   -4.09305   11.73431
      H1    -5.82316   -4.41145   11.89257
       H    -2.24150   -6.71558    9.65681
       O    -1.63731   -7.12537   10.25977
      H1    -1.13093   -6.42917   10.73279
       H    -2.78124   -8.69183   13.21593
       O    -1.89668   -8.28452   12.93391
      H1    -2.12063   -7.89880   11.97809
       H    -7.24584   -7.68344   15.33274
       O    -7.38542   -7.12485   14.54962
      H1    -8.05559   -7.62362   14.02203
       H    -4.85734  -10.75354   16.60888
       O    -4.67594  -10.35244   15.75690
      H1    -3.82536  -10.68193   15.45080
       H    -4.94896   -7.51439   10.97844
       O    -5.30296   -7.09488   10.23188
      H1    -4.74406   -7.47820    9.52838
       H    -5.33573  -11.46129   12.34519
       O    -5.95648  -10.86181   12.86267
      H1    -5.50757  -10.75748   13.70016
       H    -6.26636   -9.44189   16.25828
       O    -7.00007   -8.88559   16.57425
      H1    -7.82467   -9.28135   16.27928
       H    -3.03881   -8.46141    8.05510
       O    -3.90072   -8.46012    8.49002
      H1    -4.50365   -8.56537    7.73796
       H    -5.35837   -8.97251   12.65419
       O    -4.67929   -8.31368   12.45999
      H1    -4.65925   -7.71980   13.17560
       H    -2.17378  -11.35365    9.21173
       O    -3.16105  -11.23514    9.30664
      H1    -3.25314  -10.24027    9.23440
       H    -5.53986   -6.07148   14.13528
       O    -4.62457   -6.39253   14.21924
      H1    -4.32197   -6.22949   15.09122

