42
frame 7 | Written by MDAnalysis XYZWriter (release 2.4.3)
       H    15.54512    3.40337    8.24049
       O    15.30059    3.98005    7.50424
      H1    15.14613    4.89412    7.78280
       H    13.59507    8.92743    2.55725
       O    13.33721    8.09194    2.08698
      H1    13.66471    8.05156    1.21558
       H     9.61400    7.78374    5.88757
       O     8.87844    7.17684    5.73092
      H1     9.29231    6.37235    5.52062
       H    12.61894    7.96132    7.07926
       O    12.84747    8.13721    6.14849
      H1    12.12570    8.67668    5.81429
       H    10.97622    5.21668    3.48465
       O    10.79319    4.27474    3.41888
      H1    11.18369    3.90691    4.23269
       H    15.28528    7.61603    5.62346
       O    16.09592    7.77861    5.14880
      H1    15.93093    7.34821    4.33320
       H    10.25455   10.22286    6.57153
       O    10.35935    9.50947    5.91212
      H1    10.24256    9.95920    5.04250
       H    13.63342    6.99938    3.35349
       O    13.81343    6.40137    4.13627
      H1    13.32090    6.86867    4.82327
       H    15.63861   11.86915    8.84664
       O    14.99862   11.19645    8.78551
      H1    15.01106   11.03070    7.87483
       H    14.64198    9.62745    6.27275
       O    14.66903   10.57249    6.09489
      H1    15.63120   10.61514    6.04886
       H    11.83883    6.86735    9.25964
       O    12.17959    6.62334    8.38199
      H1    11.38347    6.85848    7.85675
       H    10.09596    7.97250    2.56187
       O    10.64909    7.17644    2.71751
      H1    11.11177    7.07177    1.86279
       H    14.00088    6.25544    7.90330
       O    14.92794    6.51464    7.93605
      H1    15.10660    6.62504    8.89520
       H    15.00486   10.34255    2.71781
       O    14.13618   10.56692    3.11706
      H1    14.22572   10.55352    4.08818

