42
frame 7 | Written by MDAnalysis XYZWriter (release 2.4.3)
       H    -2.82045  -15.05003  -10.42509
       O    -3.58232  -15.51448  -10.72997
      H1    -4.38128  -14.94923  -10.61356
       H    -5.17536  -11.51326  -15.23795
       O    -4.90524  -12.37206  -15.04305
      H1    -4.03340  -12.37101  -15.48697
       H    -7.25370  -12.01885  -11.18195
       O    -7.36533  -11.56977  -11.98026
      H1    -6.47983  -11.37690  -12.30140
       H    -1.18059  -11.31973  -12.06586
       O    -0.47911  -10.66938  -11.98469
      H1    -0.35570  -10.28334  -12.85510
       H    -3.70032  -16.87058  -13.90687
       O    -4.15566  -16.00964  -13.66702
      H1    -3.87746  -15.75996  -12.76469
       H    -7.16404  -15.44702  -11.96417
       O    -6.80327  -15.00538  -11.14950
      H1    -6.34923  -14.22486  -11.59091
       H    -4.90311  -10.13408  -12.84091
       O    -4.80776  -10.65222  -11.99607
      H1    -4.14223  -10.21141  -11.44596
       H    -5.25907  -13.25582  -12.95180
       O    -5.03073  -13.20769  -12.02177
      H1    -4.96274  -12.21924  -11.94490
       H    -7.45595   -9.56616  -11.06964
       O    -7.83704   -9.00345  -10.34856
      H1    -7.03221   -8.78378   -9.88273
       H    -2.56008  -12.71536   -9.90728
       O    -1.91559  -12.98639  -10.55920
      H1    -1.06541  -12.97427  -10.13893
       H    -6.05560   -9.48665  -14.64812
       O    -5.17555   -9.33743  -14.35054
      H1    -5.04255   -8.39296  -14.07141
       H    -3.44769  -11.41126   -8.43782
       O    -4.07544  -12.04267   -8.79950
      H1    -4.91887  -11.58716   -8.64193
       H    -2.66237  -13.44074  -13.69289
       O    -2.02207  -13.02981  -13.16508
      H1    -2.36330  -13.07703  -12.25884
       H    -7.58879  -12.88578   -8.58965
       O    -7.29266  -12.06343   -9.00021
      H1    -8.00632  -11.36549   -8.81984

