42
frame 6 | Written by MDAnalysis XYZWriter (release 2.4.3)
       H    11.77699   -5.79963   10.02372
       O    10.95431   -5.77837   10.53829
      H1    10.63234   -4.87438   10.64859
       H     8.00032  -11.17584   11.55511
       O     8.04436  -10.76130   10.66197
      H1     8.56398  -10.00997   10.87959
       H    13.57818   -6.13211   10.27213
       O    13.22567   -6.10719    9.36386
      H1    13.44253   -5.29163    8.88954
       H     8.14750   -8.63400   13.74355
       O     8.71127   -7.99460   13.28241
      H1     9.00625   -8.39353   12.40630
       H    11.09586   -6.18925   14.51417
       O    11.36504   -6.96690   14.01577
      H1    10.50977   -7.38400   13.80002
       H    13.76576   -7.76216    8.81401
       O    14.06397   -8.72214    8.91656
      H1    13.53593   -9.21939    8.30233
       H    14.59082   -7.87719   14.51150
       O    13.97059   -8.07714   13.82283
      H1    13.18909   -7.46283   13.80219
       H     8.43527   -6.32835   11.65097
       O     7.72710   -5.69556   11.55822
      H1     7.84385   -5.35051   10.64610
       H    11.26046  -11.91550   11.80582
       O    11.41438  -10.99562   12.09757
      H1    12.32463  -10.78436   12.19723
       H    10.78284   -9.19334   11.35954
       O    10.08844   -8.61605   11.00476
      H1    10.50690   -7.74190   10.76494
       H    11.16415   -6.86919    6.91480
       O    11.75191   -7.29755    6.27293
      H1    12.42653   -6.69677    6.05384
       H    14.05520   -6.74804   12.66387
       O    14.23614   -6.16663   11.87166
      H1    14.03937   -5.26321   12.23307
       H    10.96465   -4.16352    7.98325
       O    10.53399   -5.08097    7.97807
      H1    10.55190   -5.36505    8.89365
       H    10.17209   -9.09922    9.40347
       O    10.24704   -9.37888    8.45649
      H1    10.97874  -10.03012    8.48258

