42
frame 7 | Written by MDAnalysis XYZWriter (release 2.4.3)
       H     8.80005    4.62400  -13.51351
       O     9.13226    4.73796  -12.60765
      H1     8.54936    5.24937  -12.08341
       H     8.77381    8.58170  -12.82964
       O     9.78615    8.57785  -12.96910
      H1    10.09163    8.22604  -12.08567
       H    12.92426    3.83844  -13.58776
       O    12.65663    4.02594  -12.68589
      H1    11.73455    4.03894  -12.77390
       H     8.19893    4.44860  -16.23958
       O     8.02916    4.93143  -15.47364
      H1     8.48796    5.77747  -15.65573
       H     4.44483    6.44144  -13.09209
       O     4.80867    5.62243  -12.70760
      H1     4.30715    5.45083  -11.93707
       H     7.54371    6.75289  -10.27859
       O     7.54063    5.93951  -10.80063
      H1     6.67727    5.97799  -11.27710
       H    10.32858    8.90622   -8.79407
       O    10.53069    8.72845   -9.72882
      H1    10.80346    7.79400   -9.78140
       H     8.61267    2.23794  -10.53323
       O     9.07856    2.08129  -11.44412
      H1     9.41973    2.93509  -11.74828
       H     5.18457    4.51676  -13.79043
       O     5.46611    3.93701  -14.51786
      H1     6.26137    4.28541  -14.95853
       H     6.54169    2.02968   -9.27345
       O     7.26684    2.67336   -9.25398
      H1     6.91143    3.48936   -8.90018
       H     8.23745    6.76657   -8.13164
       O     7.65501    7.44907   -8.55857
      H1     6.74320    7.42516   -8.31419
       H    10.65653    5.82546  -11.72603
       O    11.28988    6.48687  -11.36510
      H1    11.89886    5.95598  -10.81737
       H     9.08324    7.94629  -16.10841
       O     9.41470    7.22511  -15.57672
      H1     9.65559    7.55948  -14.72891
       H     6.88787    6.96690  -14.00023
       O     7.00225    7.84469  -13.68665
      H1     6.26482    7.96207  -13.06024

