42
frame 6 | Written by MDAnalysis XYZWriter (release 2.4.3)
       H    13.31374   -5.96390    3.97071
       O    13.73434   -5.90789    4.79793
      H1    14.59716   -6.39589    4.67065
       H    10.04401   -3.78204    5.08791
       O    10.83188   -3.27796    4.80842
      H1    11.26149   -3.64124    4.03365
       H    11.31968   -2.55688    6.39665
       O    11.52042   -2.35127    7.38616
      H1    12.25967   -1.78194    7.35247
       H    14.56802   -1.28669    8.17116
       O    15.05306   -1.57552    8.96772
      H1    15.65363   -2.26696    8.55941
       H    14.23868   -4.14332    4.43364
       O    14.50575   -3.21383    4.63051
      H1    15.43548   -3.25820    4.33031
       H    17.10073   -1.67926    5.13193
       O    17.48314   -2.48183    4.75079
      H1    18.16412   -2.74655    5.40333
       H    13.42170    0.27818    7.50749
       O    13.62303   -0.45439    6.87940
      H1    14.33657   -0.13405    6.31970
       H    16.46481   -3.25239    0.45543
       O    15.66816   -2.96367    0.91503
      H1    15.03615   -2.99593    0.13295
       H    13.35383   -3.47354    7.68612
       O    13.92498   -4.14195    7.27820
      H1    13.97531   -4.00199    6.32191
       H    12.01604   -4.89091    1.88115
       O    11.16632   -4.75409    2.46906
      H1    10.69364   -5.59489    2.24595
       H    13.28432   -1.97729    3.55698
       O    12.74837   -1.56074    2.89137
      H1    12.42113   -0.83130    3.41261
       H    15.96423   -6.48360    0.89273
       O    15.33681   -5.95062    1.31858
      H1    15.66448   -5.03757    1.23202
       H    15.31891   -1.53019    1.59390
       O    14.95816   -0.66826    1.89513
      H1    14.19621   -0.91538    2.38710
       H    16.50996    0.40474    6.00826
       O    15.80056    0.13356    5.45144
      H1    16.04871    0.75209    4.74046

