42
frame 8 | Written by MDAnalysis XYZWriter (release 2.4.3)
       H    13.39463   -1.71181   -8.65858
       O    12.65273   -1.42364   -8.05116
      H1    12.25385   -0.74634   -8.62896
       H    13.50944    0.92446   -6.40974
       O    14.01374    0.77756   -7.14823
      H1    13.48619    0.20078   -7.67950
       H    14.85508    3.20669   -5.80794
       O    14.57766    3.07623   -4.82930
      H1    13.89615    3.72601   -4.60170
       H    15.28012   -1.23982   -3.78883
       O    15.85865   -0.92646   -3.07475
      H1    15.28063   -0.28272   -2.54761
       H    19.03603   -1.84332   -8.39217
       O    19.89563   -1.60137   -8.84457
      H1    20.05709   -2.24450   -9.57844
       H    20.12892    2.55233   -8.26828
       O    19.64511    3.14768   -8.86648
      H1    18.99217    2.52378   -9.17131
       H    17.25907   -2.72735   -8.01259
       O    16.91793   -2.45798   -8.90050
      H1    16.05630   -2.84328   -8.84936
       H    16.71214    3.39340   -4.49095
       O    17.34654    3.89721   -3.97610
      H1    18.16261    3.71943   -4.46294
       H    17.54549    2.64118  -11.36913
       O    17.20016    1.97427  -10.76466
      H1    16.26881    2.08304  -10.63190
       H    17.56397    0.36677   -5.61361
       O    17.68435    0.43361   -4.69758
      H1    16.85137    0.06870   -4.27046
       H    13.67716   -2.27226   -4.73074
       O    14.56960   -2.51975   -5.12443
      H1    14.58421   -3.48399   -5.19753
       H    15.00991    3.02798   -8.11707
       O    15.95087    2.81367   -7.92295
      H1    16.11788    1.86980   -8.09972
       H    16.72637   -0.63368   -7.79751
       O    16.64537    0.08071   -7.21734
      H1    15.74184   -0.03851   -6.98119
       H    16.68062   -2.33073   -6.01484
       O    17.42728   -2.80772   -6.40061
      H1    17.50106   -3.62817   -5.90850

