42
frame 8 | Written by MDAnalysis XYZWriter (release 2.4.3)
       H     7.43931    4.21364    3.85454
       O     7.31893    3.24225    3.90104
      H1     7.31965    2.94659    4.81076
       H     8.45946    9.25215    4.01228
       O     9.00768    8.90763    3.23996
      H1     8.54922    9.27801    2.50633
       H     5.66122    3.40594    5.72806
       O     5.04893    3.88018    6.29248
      H1     5.37426    4.16766    7.16141
       H     9.49221    7.73555    6.02043
       O     8.98043    6.92206    6.29860
      H1     9.39237    6.18572    5.82331
       H    11.35384    5.53610    4.37855
       O    10.49995    5.14549    4.67593
      H1    10.77455    4.42723    5.33810
       H     7.89705    6.53134    4.23597
       O     7.26811    5.97016    3.69799
      H1     7.36026    6.26793    2.80567
       H     8.00556    7.59195    7.71103
       O     7.50928    8.04857    8.39740
      H1     7.26300    8.88952    8.03460
       H    10.25916   10.06156    5.68043
       O    10.69926    9.35457    5.23846
      H1    10.21020    9.27189    4.41235
       H     6.30371    8.06838    1.01598
       O     5.50870    7.59292    0.67013
      H1     4.78306    7.82141    1.30814
       H    11.67002    4.08707    1.07991
       O    11.68392    3.90274    2.02661
      H1    11.03159    4.44225    2.46313
       H     6.70548   10.59112    4.29306
       O     6.96967    9.91095    4.93355
      H1     6.36177    9.21484    4.88330
       H     9.98987    7.44562    2.72257
       O    10.41520    6.74546    2.16356
      H1    11.34839    7.03280    2.04274
       H     4.55998    7.38089    5.14288
       O     5.34042    7.82529    4.81720
      H1     5.98861    7.07502    4.83060
       H     7.89112    5.14241    0.58696
       O     8.13538    5.97780    1.01804
      H1     9.07860    5.89853    1.28075

