42
frame 8 | Written by MDAnalysis XYZWriter (release 2.4.3)
       H    12.40196   12.75464  -16.67594
       O    12.92154   13.56183  -16.68325
      H1    13.40277   13.60292  -15.88948
       H     9.23234   13.25102  -12.56734
       O     8.95810   13.83685  -13.35478
      H1     8.47013   13.22098  -13.94123
       H     7.18653   17.34412  -17.50766
       O     6.45279   17.84073  -17.86170
      H1     6.78866   18.29196  -18.59552
       H     9.20689   16.88568  -13.71290
       O     9.91488   16.31306  -14.15313
      H1     9.78930   15.35033  -13.92223
       H     8.85498   16.18987  -15.54947
       O     8.12582   16.08268  -16.20939
      H1     7.45663   15.66769  -15.73821
       H    11.26983   15.90923  -17.40625
       O    10.45829   15.39534  -17.55266
      H1     9.80177   16.00835  -17.13472
       H     6.11619   12.98697  -16.94556
       O     6.16308   13.40681  -17.82303
      H1     7.11630   13.48846  -17.95114
       H     9.44002   13.81854  -17.76450
       O     9.08001   12.98546  -17.82613
      H1     8.98595   12.64782  -16.93172
       H    13.45987   15.37648  -17.87609
       O    13.21430   16.30875  -17.74503
      H1    13.55990   16.85306  -18.47929
       H     9.69255   11.44335  -18.68463
       O     9.99121   10.67903  -19.13850
      H1    10.96845   10.80546  -19.19123
       H    10.82133   11.02622  -14.58966
       O    10.26494   11.08177  -13.73380
      H1     9.93052   10.21174  -13.43901
       H     5.61586   11.93499  -18.83854
       O     5.17187   11.07040  -19.00035
      H1     5.87693   10.59163  -19.42700
       H    10.69155   10.86765  -16.81231
       O    11.46652   11.34680  -16.44818
      H1    12.16172   10.75277  -16.21146
       H     8.84799   11.59633  -14.75518
       O     8.06689   12.01402  -15.15153
      H1     7.28741   11.51494  -14.90003

