42
frame 7 | Written by MDAnalysis XYZWriter (release 2.4.3)
       H    16.85038   -1.99344   13.55967
       O    16.63688   -2.37910   14.40886
      H1    17.12185   -1.81317   15.08799
       H    16.20563   -2.55451   18.54096
       O    16.54368   -1.73684   18.15133
      H1    15.75866   -1.12842   18.22397
       H    18.11747   -3.94897   10.73635
       O    18.38161   -3.07872   10.32335
      H1    19.16754   -2.89176   10.83295
       H    18.44193    0.37486   16.02361
       O    18.10873   -0.52284   15.93654
      H1    17.77349   -0.76058   16.76664
       H    17.24295   -0.19107   12.21078
       O    17.22835   -1.11509   12.20835
      H1    17.53924   -1.51231   11.35974
       H    16.03856   -4.43436   18.33685
       O    15.49507   -3.93853   18.95519
      H1    15.84038   -4.08605   19.82584
       H    18.99927   -4.37547   15.10151
       O    18.14301   -4.73098   14.88325
      H1    17.53956   -3.94799   14.79264
       H    14.50272   -6.92745   12.67436
       O    14.93916   -6.11445   12.40278
      H1    14.70236   -5.46001   13.07282
       H    17.95497   -8.61379   13.89932
       O    17.45602   -9.28450   13.34022
      H1    17.34356   -8.84065   12.48599
       H    16.21646   -5.99659   16.72093
       O    16.98170   -5.52997   17.14712
      H1    17.37429   -5.06547   16.41167
       H    17.57923   -6.38487   10.83463
       O    17.64701   -5.68215   11.48239
      H1    16.76311   -5.77961   11.92149
       H    18.41239   -6.49318   14.29720
       O    18.92508   -7.32022   14.33013
      H1    19.83759   -7.07205   14.24233
       H    13.97906   -3.73391   14.37824
       O    14.31691   -3.40769   13.51142
      H1    15.15248   -2.97807   13.76890
       H    19.47644   -7.66894   17.05721
       O    19.58539   -6.88313   17.53887
      H1    18.81816   -6.33630   17.29152

