42
frame 0 | Written by MDAnalysis XYZWriter (release 2.4.3)
       H    -6.91983   -5.05466   16.97674
       O    -7.33896   -5.02270   17.86270
      H1    -6.61265   -5.19539   18.47009
       H    -6.80873   -6.78044   11.35909
       O    -6.35876   -6.06508   10.92118
      H1    -6.01321   -6.51679   10.13806
       H   -10.54536   -6.38838   17.31009
       O    -9.70926   -6.40570   16.81531
      H1    -9.08630   -5.91657   17.33266
       H    -6.86508   -3.83986   12.98287
       O    -5.99887   -4.30424   13.02502
      H1    -5.97812   -4.92519   12.23978
       H    -8.91436   -3.84531   12.36369
       O    -8.24909   -3.18609   12.61075
      H1    -7.99614   -2.79305   11.77991
       H    -8.60179   -7.60640   16.04845
       O    -7.75633   -8.13815   16.10641
      H1    -7.93389   -8.83528   15.49365
       H    -3.71703   -1.36382   13.08549
       O    -4.34582   -1.81214   13.70212
      H1    -4.51794   -2.67401   13.27211
       H    -4.42647   -7.95744   13.87378
       O    -4.11864   -8.83820   14.04526
      H1    -3.15648   -8.82503   14.29516
       H    -2.98160   -3.68997   16.19904
       O    -2.26814   -3.06732   16.02950
      H1    -2.30932   -2.33727   16.71900
       H   -10.35060   -5.48329   13.43231
       O   -10.13897   -5.54149   12.48015
      H1   -10.83041   -6.03305   12.08247
       H    -6.74204   -5.41114   14.46762
       O    -6.70364   -5.60243   15.35927
      H1    -6.84753   -6.54507   15.42141
       H   -10.32299   -5.27928   15.68051
       O   -10.36872   -4.52819   15.01321
      H1   -11.35435   -4.46663   14.96209
       H    -5.03430   -8.01686   18.24520
       O    -5.22190   -7.18073   18.75720
      H1    -4.36191   -6.90891   19.08290
       H    -4.79632   -5.50712   15.90826
       O    -3.87336   -5.50809   16.22130
      H1    -3.88574   -5.51827   17.17522

