42
frame 8 | Written by MDAnalysis XYZWriter (release 2.4.3)
       H    13.66317    5.66943   15.62174
       O    13.46419    4.89151   16.22516
      H1    12.96535    4.26223   15.66789
       H    11.62738    2.71326   13.71674
       O    12.07845    2.46748   14.58393
      H1    12.99044    2.37765   14.21614
       H    15.10208    2.73673   12.38243
       O    14.15997    2.95126   12.26664
      H1    13.77548    2.23006   11.72552
       H    17.06199    3.48342   13.31629
       O    16.95650    3.99968   14.10757
      H1    16.42402    3.42417   14.69409
       H    13.50567   -1.69488   13.24774
       O    13.39509   -0.73230   13.25842
      H1    13.67983   -0.57802   12.30661
       H    10.04763    6.20521   14.44744
       O    10.57924    5.41718   14.67599
      H1    10.47748    4.89524   13.90535
       H    15.89083    0.45938   14.99389
       O    14.99136    0.84592   15.03855
      H1    14.45967    0.33530   14.38759
       H    11.61442   -1.78890   16.49520
       O    12.51047   -1.46787   16.27150
      H1    12.43352   -1.30585   15.29417
       H    13.99158    5.95096   12.80180
       O    14.50798    5.71918   11.95764
      H1    14.54531    4.77155   12.13620
       H    10.84456    4.17236   11.95080
       O    10.56492    3.50172   12.60806
      H1     9.97414    2.94764   12.08690
       H    15.01430    2.59683   16.07967
       O    15.58320    3.22600   16.54740
      H1    14.94426    3.93998   16.65231
       H    13.47257   -0.32497   17.16715
       O    14.12012    0.24310   17.59236
      H1    14.73153    0.38016   16.80192
       H    11.98934    4.30373   10.15357
       O    12.04057    4.93310   10.87085
      H1    12.90104    4.78488   11.22282
       H     9.11061    1.00585   14.89245
       O     9.58245    0.83655   14.06515
      H1    10.44517    1.17925   14.28388

