42
frame 8 | Written by MDAnalysis XYZWriter (release 2.4.3)
       H    18.74565    3.86299   -6.92465
       O    19.26563    3.98613   -6.11605
      H1    20.09015    3.56842   -6.46372
       H    18.72952    5.37808   -9.80115
       O    19.39508    5.89526  -10.19929
      H1    19.01015    6.13139  -11.03782
       H    19.03603   -1.84332   -8.39217
       O    19.89563   -1.60137   -8.84457
      H1    20.05709   -2.24450   -9.57844
       H    20.12892    2.55233   -8.26828
       O    19.64511    3.14768   -8.86648
      H1    18.99217    2.52378   -9.17131
       H    16.71214    3.39340   -4.49095
       O    17.34654    3.89721   -3.97610
      H1    18.16261    3.71943   -4.46294
       H    17.54549    2.64118  -11.36913
       O    17.20016    1.97427  -10.76466
      H1    16.26881    2.08304  -10.63190
       H    16.79321    6.45109   -8.32678
       O    16.77723    6.96046   -7.53257
      H1    17.54993    7.52880   -7.52268
       H    17.56397    0.36677   -5.61361
       O    17.68435    0.43361   -4.69758
      H1    16.85137    0.06870   -4.27046
       H    15.00991    3.02798   -8.11707
       O    15.95087    2.81367   -7.92295
      H1    16.11788    1.86980   -8.09972
       H    16.56923    4.11098   -9.19996
       O    16.76737    4.97670   -9.65121
      H1    16.29861    4.82830  -10.52562
       H    16.72637   -0.63368   -7.79751
       O    16.64537    0.08071   -7.21734
      H1    15.74184   -0.03851   -6.98119
       H    18.41743    0.97645  -11.36480
       O    18.87886    0.48106  -12.02452
      H1    19.79632    0.64154  -12.00015
       H    18.67903    8.63984   -8.57593
       O    19.01282    7.95060   -8.03763
      H1    19.15206    7.30197   -8.71824
       H    17.82702    3.21954  -13.62000
       O    18.30092    3.67874  -12.86678
      H1    19.20924    3.45044  -12.95454

