42
frame 8 | Written by MDAnalysis XYZWriter (release 2.4.3)
       H   -17.61465  -14.88043    2.90700
       O   -17.73533  -14.09010    2.37833
      H1   -16.97109  -13.57830    2.64411
       H   -15.80152  -19.14528    0.44586
       O   -15.57044  -18.22689    0.80886
      H1   -15.73143  -18.30328    1.75023
       H   -10.27242  -19.61572   -0.03521
       O   -10.63668  -19.10344   -0.71285
      H1   -11.14389  -18.40038   -0.27843
       H   -16.11127  -17.88651    4.07314
       O   -15.48850  -18.24643    3.38947
      H1   -15.22669  -19.13351    3.66900
       H   -14.13436  -15.66640    2.16476
       O   -14.85512  -15.48420    1.51211
      H1   -15.68876  -15.77188    1.84158
       H   -17.42396  -15.85371   -0.34685
       O   -17.64038  -16.75288   -0.13973
      H1   -16.81484  -17.19861    0.13351
       H   -15.56380  -18.89154   -3.73427
       O   -14.84195  -19.44960   -3.44651
      H1   -14.66496  -20.09561   -4.20224
       H   -18.00308  -17.82163   -1.33899
       O   -17.95247  -18.60678   -1.87527
      H1   -17.33195  -19.19851   -1.43842
       H   -17.96111  -17.56004    5.08931
       O   -17.47072  -16.86745    4.62896
      H1   -16.98489  -16.29206    5.25319
       H   -13.11721  -18.28221   -2.98684
       O   -12.37075  -17.79384   -3.38440
      H1   -12.68557  -17.14689   -3.98914
       H   -12.27686  -16.22603   -0.87444
       O   -11.79263  -15.78583   -1.56126
      H1   -11.83635  -16.49660   -2.20143
       H   -13.80249  -16.96274    3.54541
       O   -13.02297  -16.40704    3.46509
      H1   -12.98173  -15.76648    4.15571
       H   -15.49845  -14.23140   -3.90040
       O   -15.48750  -15.16821   -3.82742
      H1   -15.14459  -15.25747   -2.91023
       H   -12.41167  -17.28321    1.57823
       O   -12.42639  -17.36029    0.59233
      H1   -13.32385  -17.41766    0.44476

