42
frame 8 | Written by MDAnalysis XYZWriter (release 2.4.3)
       H    -8.80774   13.60706   16.04849
       O    -8.64945   13.02117   16.84771
      H1    -9.39996   13.16388   17.36982
       H   -10.12375   19.00728   18.13911
       O   -10.55131   18.11460   18.09982
      H1    -9.96123   17.59524   17.52456
       H   -11.09353   15.60207   19.22128
       O   -11.80495   15.16375   18.80254
      H1   -12.60641   15.68429   18.89218
       H    -6.31631   15.95925   12.62498
       O    -6.37579   16.09645   13.59074
      H1    -6.86302   15.27619   13.94794
       H    -8.23093   16.72031   19.31389
       O    -7.63728   17.46166   19.12721
      H1    -7.01960   17.04439   18.50555
       H    -8.75008   14.60573   13.66246
       O    -7.98021   14.23793   14.16520
      H1    -7.76628   13.43869   13.70488
       H   -10.37473   15.81225   15.12422
       O   -11.16285   15.31258   15.28001
      H1   -11.83966   15.98047   15.55187
       H    -7.95795   17.52189   16.31802
       O    -8.87095   17.29150   15.94429
      H1    -8.91490   17.71947   15.05734
       H    -7.31576   14.70613   17.09500
       O    -6.54530   15.00400   17.58531
      H1    -6.23676   15.79054   17.05852
       H    -2.63427   17.14454   16.98061
       O    -3.23351   17.23202   16.23905
      H1    -3.33727   16.34514   15.82927
       H    -6.20713   16.88674   15.26501
       O    -6.12110   17.37674   16.11687
      H1    -5.21709   17.54290   16.26561
       H    -3.19059   15.16860   14.05779
       O    -4.02650   15.21810   14.58274
      H1    -4.62802   15.54860   13.94298
       H    -5.06641   12.04855   17.47471
       O    -5.85139   11.78083   16.98431
      H1    -6.53936   12.42376   17.20273
       H    -5.37702   14.27720   18.89792
       O    -4.84993   14.00206   19.67908
      H1    -5.48518   13.33951   20.01128

