42
frame 8 | Written by MDAnalysis XYZWriter (release 2.4.3)
       H   -16.28317   14.09055    2.69707
       O   -16.48071   13.27773    3.19352
      H1   -15.65329   12.87651    3.15313
       H   -18.23407   15.42761    2.86795
       O   -19.08669   15.85911    2.88683
      H1   -19.67436   15.17455    3.28365
       H   -13.75644   15.42097   -2.41017
       O   -14.55520   14.99947   -2.78859
      H1   -15.10500   15.75847   -2.94128
       H   -17.87143   18.25860    1.72384
       O   -16.93884   18.50766    2.05025
      H1   -17.11615   19.31970    2.49752
       H   -16.50918   17.81890   -3.07683
       O   -16.87333   17.03181   -3.47350
      H1   -17.65506   17.27342   -3.95771
       H   -19.21934   16.86904    1.21796
       O   -18.86185   17.59504    0.68644
      H1   -19.61330   18.08286    0.29279
       H   -15.23503   15.33227   -1.22670
       O   -15.51414   15.31773   -0.33441
      H1   -16.41084   15.53067   -0.38546
       H   -16.17725   18.28164   -0.38458
       O   -16.09226   18.72800   -1.19635
      H1   -15.19764   18.96217   -1.29978
       H   -16.07465   16.98058    2.18306
       O   -15.96354   15.99595    2.25010
      H1   -15.67587   15.73864    1.34624
       H   -18.05311   14.10438   -1.84894
       O   -18.18261   13.17025   -2.00193
      H1   -18.12683   13.00916   -3.03414
       H   -19.07271   17.00962   -5.41694
       O   -18.34252   17.00715   -6.06954
      H1   -17.86304   16.21520   -5.89011
       H   -17.76740   16.35236   -2.16786
       O   -18.19691   15.86125   -1.42228
      H1   -18.39421   16.56993   -0.79991
       H   -17.00278   10.56956   -1.58355
       O   -16.33710   11.25822   -1.37900
      H1   -16.80635   12.09690   -1.48503
       H   -16.05354   14.41329   -5.93988
       O   -16.98721   14.40837   -6.00494
      H1   -17.25409   13.57840   -5.47917

