42
frame 8 | Written by MDAnalysis XYZWriter (release 2.4.3)
       H     4.71136   15.73980  -11.10628
       O     3.80953   15.82011  -10.91166
      H1     3.34681   15.65471  -11.72756
       H     3.21286   16.46192  -14.56462
       O     3.58283   17.13983  -15.12629
      H1     3.91441   16.89222  -15.95750
       H     5.43213   19.61569  -14.90280
       O     4.63655   19.57383  -14.29258
      H1     4.21613   18.74887  -14.51942
       H     6.62543   16.28568  -12.30811
       O     6.25569   16.65152  -13.12721
      H1     6.74523   17.48783  -13.26613
       H     0.44987   16.82309  -13.28461
       O     0.03604   15.97234  -12.99515
      H1     0.08209   16.07172  -12.04321
       H     1.78335   15.23220  -13.46628
       O     2.74524   15.28314  -13.36627
      H1     3.11358   14.69502  -14.06565
       H     5.13013   15.86189  -14.97702
       O     5.46729   15.02659  -15.27076
      H1     4.79521   14.68342  -15.80315
       H    -1.54905   17.40130  -17.30628
       O    -0.79635   17.27573  -16.71498
      H1    -0.75000   16.30557  -16.67406
       H    -1.70096   19.06564  -14.03522
       O    -1.67466   19.08186  -15.00081
      H1    -1.28108   18.28438  -15.40077
       H     2.93201   17.74951  -11.16901
       O     2.25705   18.36091  -11.42363
      H1     2.57773   19.22735  -11.19682
       H     1.98673   17.98511  -14.49108
       O     1.24869   18.18185  -13.96134
      H1     1.52353   18.26898  -13.07243
       H     6.66466   19.18481  -12.13228
       O     5.90181   19.72725  -11.93704
      H1     5.27691   19.47508  -12.62650
       H     3.18967   17.76891  -18.17864
       O     3.71747   17.00294  -17.87666
      H1     4.66553   17.16225  -17.99868
       H     0.44922   18.28963  -18.03209
       O     1.26072   18.72026  -18.43323
      H1     1.67428   19.15784  -17.63694

