42
frame 8 | Written by MDAnalysis XYZWriter (release 2.4.3)
       H     8.78491   -1.24301   -0.50552
       O     8.57102   -2.14801   -0.81427
      H1     9.07394   -2.72467   -0.22965
       H     4.74479   -1.40804   -2.33328
       O     4.41498   -2.05716   -2.93229
      H1     5.08668   -2.79449   -2.84368
       H    12.43083   -2.47656   -0.44819
       O    12.98970   -2.09589   -1.13101
      H1    13.48990   -2.84403   -1.55686
       H     7.26347   -2.69532    0.57076
       O     7.09745   -3.03153    1.49708
      H1     6.13821   -3.12503    1.48296
       H    11.84317   -2.86303    1.75736
       O    11.19090   -2.73252    1.00664
      H1    10.71818   -3.59408    1.08337
       H     7.04932   -2.57092   -5.55293
       O     7.84823   -3.12188   -5.38396
      H1     8.35225   -2.66059   -4.61421
       H    12.80686    0.66884   -1.75005
       O    11.88616    0.53406   -2.05390
      H1    11.87502   -0.43759   -2.02325
       H     4.94027   -4.99047   -2.46983
       O     5.83697   -4.69602   -2.70911
      H1     6.14490   -5.03829   -3.56385
       H    11.16250   -2.33972   -4.14978
       O    11.95878   -2.81497   -3.76083
      H1    11.78493   -3.25944   -2.96072
       H     8.88673   -1.00407   -7.67582
       O     8.91499   -1.97688   -7.72978
      H1     8.64738   -2.22631   -6.85094
       H     9.33569   -0.95925   -3.68808
       O     9.29887   -1.91113   -3.58332
      H1     9.14671   -2.15262   -2.63423
       H    10.91450   -4.43700   -4.59396
       O    11.14861   -5.14996   -5.28320
      H1    10.46912   -5.81228   -5.25770
       H     6.33896   -5.91047   -5.79034
       O     6.79035   -5.66616   -4.98487
      H1     7.11379   -4.81387   -5.25506
       H     9.98294    0.73542   -0.04739
       O     9.49722    0.15728    0.54145
      H1    10.19407   -0.20941    1.09808

