42
frame 8 | Written by MDAnalysis XYZWriter (release 2.4.3)
       H     9.23234   13.25102  -12.56734
       O     8.95810   13.83685  -13.35478
      H1     8.47013   13.22098  -13.94123
       H     6.62543   16.28568  -12.30811
       O     6.25569   16.65152  -13.12721
      H1     6.74523   17.48783  -13.26613
       H     9.77325   11.98664  -10.63394
       O    10.24999   12.38500  -11.41086
      H1    10.13680   11.82443  -12.21223
       H     9.20689   16.88568  -13.71290
       O     9.91488   16.31306  -14.15313
      H1     9.78930   15.35033  -13.92223
       H     8.29120   16.02265  -10.87028
       O     7.69790   15.43194  -11.30155
      H1     8.24615   15.07798  -12.03229
       H     5.69078   14.20019  -13.15165
       O     5.43931   13.32866  -12.79525
      H1     5.46349   13.33396  -11.83610
       H     8.85498   16.18987  -15.54947
       O     8.12582   16.08268  -16.20939
      H1     7.45663   15.66769  -15.73821
       H     9.44002   13.81854  -17.76450
       O     9.08001   12.98546  -17.82613
      H1     8.98595   12.64782  -16.93172
       H     6.78273   14.24830  -10.63780
       O     6.19354   13.60198  -10.10313
      H1     5.91724   14.17316   -9.37637
       H    13.02685   17.04784  -13.75577
       O    12.43752   16.85810  -12.98284
      H1    11.58203   16.60762  -13.47034
       H    10.82133   11.02622  -14.58966
       O    10.26494   11.08177  -13.73380
      H1     9.93052   10.21174  -13.43901
       H     7.33811   11.20346  -11.16984
       O     7.02707   11.18957  -12.11616
      H1     6.62144   12.06377  -12.28603
       H    11.30299   13.86005  -11.15658
       O    11.86722   14.59301  -10.86347
      H1    11.94290   15.14849  -11.68587
       H     8.84799   11.59633  -14.75518
       O     8.06689   12.01402  -15.15153
      H1     7.28741   11.51494  -14.90003

