42
frame 9 | Written by MDAnalysis XYZWriter (release 2.4.3)
       H     8.12616    8.82060    3.96581
       O     8.79948    8.27945    3.51072
      H1     8.28479    8.13375    2.72165
       H    11.31818    8.90199   -2.09684
       O    11.79256    9.32540   -1.36073
      H1    11.43339    8.86013   -0.58093
       H     6.51676    3.17565    1.13710
       O     6.98920    3.35240    0.33059
      H1     6.51986    4.14196    0.02247
       H     6.68535    6.01035   -2.44067
       O     6.46571    5.09207   -2.37738
      H1     5.55668    5.31419   -2.04603
       H     7.16447    9.30297    1.39736
       O     7.33456    8.32952    1.36133
      H1     7.95967    8.11023    0.68630
       H     7.35683    5.66319    4.03650
       O     6.85540    5.33541    3.24212
      H1     7.43746    5.53901    2.50083
       H     5.64396    8.12014    0.91855
       O     4.78754    7.97698    0.49416
      H1     4.15600    7.93379    1.21012
       H     8.98768    7.78117   -1.21379
       O     9.33890    7.74726   -0.30120
      H1     9.51899    6.84215   -0.06254
       H    12.21663    4.00332    0.98482
       O    11.44088    4.02896    1.56854
      H1    11.44955    4.96282    1.85837
       H     9.60563   11.12101   -2.00239
       O     9.11142   10.96832   -1.14602
      H1     9.21457    9.97948   -1.06647
       H     7.31934    8.84667   -2.39563
       O     7.80866    8.00348   -2.56668
      H1     7.69270    7.79641   -3.49785
       H    10.77132    7.15835    2.63304
       O    11.51490    6.56135    2.61841
      H1    12.33800    7.00775    2.55237
       H     8.44907    4.65840    0.61813
       O     8.90279    5.31083    1.18132
      H1     9.82340    5.05557    1.16296
       H    10.97650    7.19519   -3.30595
       O    10.55462    8.09315   -3.27037
      H1     9.69933    7.97170   -2.89149

