42
frame 9 | Written by MDAnalysis XYZWriter (release 2.4.3)
       H   -16.73767    6.34005    9.68757
       O   -16.43092    6.60075   10.52033
      H1   -16.98065    7.34626   10.75344
       H   -16.23476    5.35989    7.24994
       O   -15.62857    5.12177    6.49833
      H1   -14.69510    4.99842    6.82446
       H   -18.28351   10.42358    7.54682
       O   -17.94392   10.45502    8.45279
      H1   -17.89805   11.41328    8.61689
       H   -13.25011   10.43496    6.66657
       O   -12.45193   10.45869    7.23711
      H1   -12.69201    9.98542    8.07176
       H   -14.75431    7.91270   10.05737
       O   -14.21299    8.38547   10.69866
      H1   -14.80798    8.97023   11.16715
       H   -16.75136    8.59775    6.54468
       O   -16.65755    8.39714    7.44743
      H1   -17.01929    9.20879    7.85214
       H   -19.19372    7.08129    4.21599
       O   -19.03056    7.60103    5.03992
      H1   -18.05890    7.60160    5.15736
       H   -17.89973   12.28455    5.19747
       O   -18.59327   11.65062    5.47152
      H1   -18.69072   11.18094    4.62665
       H   -18.11343   13.60270    9.86538
       O   -17.68859   13.12111    9.13293
      H1   -18.15287   13.47663    8.34220
       H   -17.26924    6.75268    7.90035
       O   -17.39532    5.87065    8.25163
      H1   -18.39576    5.65865    8.16674
       H   -14.47805   13.34248    5.82585
       O   -14.81691   12.67569    6.42625
      H1   -14.90169   11.90514    5.81316
       H   -15.57949    7.72984    4.70156
       O   -16.41648    8.22035    4.69165
      H1   -16.72920    8.16072    3.81654
       H   -15.11850    9.68587    5.00078
       O   -14.40287   10.34727    5.06923
      H1   -13.92869   10.35788    4.21728
       H   -18.95419    9.67230    9.60749
       O   -19.62416    9.30452   10.26448
      H1   -19.13808    8.89857   10.99492

