42
frame 9 | Written by MDAnalysis XYZWriter (release 2.4.3)
       H   -13.19902   18.80906  -18.31744
       O   -12.49485   18.22393  -18.63435
      H1   -11.67117   18.65394  -18.42271
       H    -4.94070   18.85551  -13.38726
       O    -5.53065   19.42910  -13.93561
      H1    -6.23702   19.63853  -13.35172
       H   -11.28644   18.40369  -10.31396
       O   -11.30399   18.53242  -11.28015
      H1   -10.54029   18.02913  -11.54154
       H   -12.05707   15.67691  -13.93092
       O   -12.61220   14.86748  -13.77350
      H1   -12.01660   14.15056  -14.01773
       H    -7.00541   18.46383  -17.51690
       O    -7.04148   19.42276  -17.66397
      H1    -7.11755   19.64220  -18.61081
       H   -15.25923   19.89475  -16.10580
       O   -15.01803   20.06744  -15.21107
      H1   -14.38556   19.37334  -14.89784
       H    -9.10090   17.02799  -13.04269
       O    -8.96846   17.19878  -12.08929
      H1    -8.44967   16.42333  -11.83397
       H    -6.75139   17.46378  -13.74045
       O    -6.58198   16.65655  -14.23623
      H1    -6.58951   16.84649  -15.20385
       H   -11.78088   16.94600  -17.28358
       O   -11.35155   16.15332  -16.95935
      H1   -12.12496   15.64129  -16.74370
       H   -11.27056   16.94108  -15.11503
       O   -11.07833   17.12699  -14.13776
      H1   -11.89783   17.50540  -13.79480
       H   -10.53661   18.81434  -14.17175
       O   -10.21899   19.66555  -14.54401
      H1   -10.66143   20.33142  -13.95612
       H   -12.47151   15.14689  -11.64984
       O   -12.06446   15.36438  -10.83654
      H1   -11.78634   16.31626  -11.07363
       H   -14.27515   17.25517  -14.61274
       O   -13.84584   17.76812  -13.92292
      H1   -14.50605   17.97986  -13.26622
       H   -10.12637   19.90446  -16.66630
       O   -10.24970   19.80365  -17.62710
      H1    -9.48260   19.36925  -18.01921

