42
frame 8 | Written by MDAnalysis XYZWriter (release 2.4.3)
       H   -12.48004   -6.76952   18.32807
       O   -13.01834   -7.54185   18.43206
      H1   -13.93334   -7.17470   18.46188
       H   -16.30649   -5.22051   13.02393
       O   -15.62424   -4.55447   13.17083
      H1   -15.69848   -4.41479   14.13685
       H   -14.82985   -9.20784   15.43615
       O   -15.15150   -9.52344   16.31568
      H1   -14.39432   -9.65149   16.83328
       H   -17.00378  -10.45611   14.22660
       O   -17.34607  -10.66526   15.07815
      H1   -16.63081  -10.54101   15.70422
       H   -17.46284   -6.82501   14.05966
       O   -17.73845   -6.54062   13.16469
      H1   -17.34909   -7.20275   12.55635
       H   -18.26616   -3.03068   15.95592
       O   -18.33356   -3.97046   16.09897
      H1   -18.59370   -4.08270   17.01317
       H   -20.00970   -5.27700   18.66915
       O   -19.05715   -4.96241   18.76754
      H1   -18.90434   -4.96143   19.73763
       H   -16.61040   -7.42508   18.25689
       O   -17.26100   -7.73066   17.56074
      H1   -16.81058   -8.45217   17.08818
       H   -13.66066   -7.25189   16.71931
       O   -13.80892   -6.80022   15.87045
      H1   -14.67103   -6.37861   15.97378
       H   -17.01029   -6.64166   16.26677
       O   -16.54801   -6.07838   15.64269
      H1   -16.91250   -5.15975   15.78946
       H   -14.87431   -3.66379   16.65666
       O   -14.94414   -3.46968   15.72818
      H1   -15.35802   -2.59464   15.68755
       H   -13.47629   -4.45292   18.48015
       O   -14.30013   -3.95056   18.42531
      H1   -13.97051   -3.07778   18.34109
       H   -13.08335   -6.06901   14.23476
       O   -13.07240   -5.56881   13.44750
      H1   -14.05445   -5.37447   13.40538
       H   -14.46972   -9.87125   13.05619
       O   -14.46728   -8.90873   13.24588
      H1   -13.86618   -8.57988   12.53919

