42
frame 9 | Written by MDAnalysis XYZWriter (release 2.4.3)
       H   -13.11951  -12.45886    8.49309
       O   -13.47419  -12.96898    7.70384
      H1   -14.02738  -12.25675    7.24021
       H   -16.72671  -15.10441    3.70176
       O   -17.09829  -14.26106    3.37748
      H1   -16.47458  -13.55299    3.58360
       H   -15.06399  -17.48518    4.12748
       O   -14.35487  -17.85938    3.60032
      H1   -14.27614  -18.82983    3.74887
       H   -13.45505  -18.84887    6.55814
       O   -12.76514  -18.19234    6.40884
      H1   -13.12197  -17.62068    5.77252
       H   -15.06722  -13.02930    8.95098
       O   -15.96753  -13.35312    8.88869
      H1   -16.07020  -13.99921    9.57771
       H   -13.34287  -13.44494    1.58176
       O   -14.25075  -13.13241    1.29352
      H1   -14.78015  -13.12606    2.08847
       H   -10.52215  -16.07127    4.24028
       O   -11.13720  -15.63078    4.83075
      H1   -10.67102  -15.80941    5.66965
       H   -13.52235  -17.47251    8.29469
       O   -13.91157  -17.03439    9.11150
      H1   -14.48988  -17.72959    9.46527
       H   -15.42335  -11.33239    3.40309
       O   -15.69717  -11.85918    4.19040
      H1   -15.64950  -11.24819    4.91257
       H   -14.88801  -16.13141    7.60053
       O   -15.25505  -15.45990    7.01865
      H1   -14.99963  -14.67676    7.50538
       H   -17.24473  -17.72758    5.02647
       O   -16.73186  -16.97715    4.68284
      H1   -16.72058  -16.36806    5.46247
       H   -12.07935  -12.95525    6.71918
       O   -11.38643  -13.00773    6.01678
      H1   -11.69383  -13.61241    5.33267
       H   -14.32138  -13.36520    4.67401
       O   -14.11133  -14.29913    4.62060
      H1   -14.15670  -14.66112    5.53514
       H   -13.22112  -16.75077    2.21559
       O   -12.80015  -15.87201    2.37193
      H1   -13.01725  -15.61093    3.29435

