42
frame 9 | Written by MDAnalysis XYZWriter (release 2.4.3)
       H     8.21353   -3.28183   17.55514
       O     8.78622   -3.55997   16.84189
      H1     9.58312   -2.99965   17.00143
       H     8.30328   -8.89911   13.73130
       O     8.88366   -8.27735   13.28709
      H1     9.06607   -8.65177   12.40056
       H    11.84165   -7.24018   14.39725
       O    12.32695   -7.33622   13.52090
      H1    12.21596   -8.22098   13.19949
       H    10.64924   -9.97150   17.35944
       O    11.29508   -9.43935   17.88268
      H1    11.35543   -9.90209   18.70081
       H    14.95173   -7.45618   15.22598
       O    15.08880   -6.89166   14.45588
      H1    14.20865   -6.96770   14.03444
       H    11.24639   -7.13183   16.34141
       O    10.92717   -6.59370   15.61047
      H1    11.20214   -5.70911   15.87965
       H    14.47260   -9.15431   17.27959
       O    13.92211   -8.92685   16.48041
      H1    12.98384   -9.11566   16.72326
       H     7.64823   -4.72887   14.66719
       O     7.51640   -3.76093   14.60653
      H1     7.96412   -3.43198   15.37965
       H     8.78334   -5.25892   19.52973
       O     8.77490   -5.97014   18.83476
      H1     8.81123   -5.48268   18.02202
       H    12.05801   -3.41462   16.86516
       O    12.60262   -4.10540   16.59666
      H1    13.16241   -4.20647   17.40354
       H     7.08278   -8.32589   18.05950
       O     7.74560   -8.96958   18.20263
      H1     8.60464   -8.52208   18.14107
       H     6.79434   -6.48576   14.68234
       O     7.65155   -6.35193   15.12775
      H1     8.37001   -6.81214   14.61931
       H     9.88340   -5.19992   12.12925
       O    10.82670   -5.28510   12.19701
      H1    10.95914   -6.01672   12.78185
       H     9.29793   -3.19710   14.04175
       O     9.97436   -2.48304   14.06819
      H1     9.96709   -2.09279   13.17936

