42
frame 9 | Written by MDAnalysis XYZWriter (release 2.4.3)
       H    12.90739   -1.96438   -9.16925
       O    12.05292   -1.48472   -8.92087
      H1    12.03799   -0.71688   -9.55618
       H    13.18811    0.92419   -6.85167
       O    13.53329    0.51284   -7.66142
      H1    12.96402   -0.20027   -7.72605
       H    16.23105   -4.91300  -11.38745
       O    15.64775   -5.61973  -11.76476
      H1    15.92729   -6.44641  -11.29359
       H    14.95169   -5.21112  -13.50123
       O    14.69941   -4.98035  -14.37087
      H1    13.92172   -5.56228  -14.57324
       H    11.18870   -4.59157   -9.57745
       O    11.06719   -4.83219  -10.55296
      H1    10.67980   -3.95727  -10.88067
       H    10.89219   -2.48037  -12.01808
       O    11.35092   -2.57811  -12.83332
      H1    12.31289   -2.45308  -12.62445
       H    14.30077   -2.51220  -10.68999
       O    14.38071   -2.63485   -9.71941
      H1    14.20475   -3.56614   -9.59697
       H    16.91479   -2.92081  -12.09662
       O    17.37756   -3.15344  -11.28208
      H1    17.16596   -2.48451  -10.60498
       H    17.17586   -2.26026   -8.47354
       O    16.96721   -1.53749   -9.11454
      H1    16.04818   -1.80213   -9.32607
       H    13.32390   -5.64953   -8.19189
       O    14.18171   -5.06975   -8.25541
      H1    14.00218   -4.46038   -7.51046
       H    13.40860   -2.14929   -5.73077
       O    14.00124   -2.20191   -6.57588
      H1    13.99002   -1.28497   -6.87574
       H    11.50296   -4.27702   -7.04206
       O    11.23499   -4.12563   -7.96881
      H1    11.32604   -3.20894   -8.16046
       H    13.84717   -6.24948  -11.47949
       O    12.97511   -6.70717  -11.51215
      H1    12.28173   -6.03822  -11.27218
       H    14.05984   -1.84941  -13.54578
       O    14.17146   -1.68449  -12.61033
      H1    14.31004   -0.77944  -12.55402

