42
frame 9 | Written by MDAnalysis XYZWriter (release 2.4.3)
       H    -8.70842   11.37554  -12.46960
       O    -8.87100   12.32117  -12.77498
      H1    -9.28328   12.76465  -11.99319
       H    -3.45316   14.04584  -10.55764
       O    -3.42946   13.06415  -10.43220
      H1    -3.93176   12.69302  -11.16613
       H    -4.55489   15.32511  -14.13718
       O    -4.16977   14.73306  -14.81723
      H1    -4.00557   15.34737  -15.55777
       H    -3.34916   17.13771  -12.70616
       O    -3.48444   17.94173  -13.18050
      H1    -2.93192   17.86499  -13.98055
       H    -6.43381   15.21977  -11.91713
       O    -6.68489   15.47285  -11.01175
      H1    -5.84893   15.60747  -10.53205
       H    -9.10090   17.02799  -13.04269
       O    -8.96846   17.19878  -12.08929
      H1    -8.44967   16.42333  -11.83397
       H    -5.10494   11.23370  -12.94007
       O    -4.83136   11.87418  -12.28035
      H1    -5.42667   12.63449  -12.54773
       H    -8.73202   17.53829   -6.77537
       O    -8.82568   16.55156   -6.96579
      H1    -7.91205   16.40927   -7.11967
       H    -6.75139   17.46378  -13.74045
       O    -6.58198   16.65655  -14.23623
      H1    -6.58951   16.84649  -15.20385
       H    -4.96297   15.66665   -8.87318
       O    -4.11816   15.63848   -9.47954
      H1    -3.89811   16.58780   -9.47088
       H    -6.28769   15.01384   -6.97712
       O    -6.08923   15.93781   -7.32788
      H1    -5.29775   16.24584   -6.93618
       H    -7.35500   13.27923  -13.12190
       O    -6.52710   13.72944  -13.36019
      H1    -6.78292   14.49398  -13.93272
       H    -2.18001   15.17881  -12.78465
       O    -2.65643   15.72872  -12.12405
      H1    -2.02369   15.74964  -11.33463
       H   -10.53433   14.08319  -10.31353
       O    -9.63989   13.70605  -10.32785
      H1    -9.04706   14.42231  -10.48915

