42
frame 8 | Written by MDAnalysis XYZWriter (release 2.4.3)
       H   -11.28619   13.36819   15.11498
       O   -11.70618   12.46182   15.21164
      H1   -10.94303   11.80629   15.40400
       H   -14.03447   13.00690   17.09703
       O   -14.12275   12.40555   16.34568
      H1   -13.26190   12.33851   15.95543
       H   -15.16010   13.71503   15.18558
       O   -15.74681   14.49893   15.08779
      H1   -15.83403   14.99801   15.90837
       H   -16.61559   16.44005   17.44912
       O   -15.76706   16.06933   17.27489
      H1   -15.30410   16.89393   16.94408
       H   -12.21250   10.00319   17.46196
       O   -13.05233   10.24058   17.77123
      H1   -13.41208   10.93399   17.20391
       H   -13.84295   14.78380   12.96116
       O   -14.65215   15.21089   12.76996
      H1   -15.20538   14.96876   13.56458
       H   -16.82428   10.95225   14.94969
       O   -17.60625   11.44715   15.27085
      H1   -17.68686   11.33636   16.22448
       H   -14.12944   10.86803   14.14896
       O   -14.73450   10.17513   14.04249
      H1   -15.16780   10.29235   13.18236
       H   -18.01560   12.89763   12.46304
       O   -18.71252   12.38317   12.94130
      H1   -18.49481   12.29521   13.89180
       H   -10.37473   15.81225   15.12422
       O   -11.16285   15.31258   15.28001
      H1   -11.83966   15.98047   15.55187
       H   -12.12663   12.96595   13.03342
       O   -12.13535   13.84840   12.58879
      H1   -11.85503   13.64721   11.63407
       H   -15.05411   15.78493   18.67064
       O   -14.45793   15.81858   19.48689
      H1   -14.65267   16.70067   19.76100
       H   -15.49496   14.04150   11.72799
       O   -16.30456   13.49170   11.43460
      H1   -16.38860   13.71894   10.49788
       H   -17.81022   15.54972   14.27283
       O   -18.31745   16.31503   14.11230
      H1   -17.80787   16.78501   13.52417

