42
frame 10 | Written by MDAnalysis XYZWriter (release 2.4.3)
       H    -8.90319    9.07246   -8.05936
       O    -8.11674    8.55693   -8.33791
      H1    -8.37252    7.62840   -8.53635
       H   -14.42976   12.20572  -10.03691
       O   -14.72973   12.42983   -9.12129
      H1   -15.33051   13.16944   -9.18369
       H   -10.34780   10.37575   -7.08230
       O   -10.44995    9.42897   -6.82376
      H1   -10.56650    9.38625   -5.86827
       H    -7.31376   12.00237   -3.97274
       O    -7.16427   12.81993   -4.39477
      H1    -7.33253   12.76035   -5.36061
       H   -14.21295   14.14175   -4.56182
       O   -14.37416   13.40642   -5.16625
      H1   -13.64313   13.32955   -5.84506
       H   -11.96201    8.94817   -7.22143
       O   -12.79024    8.59405   -7.60424
      H1   -13.43317    9.21132   -7.31357
       H   -12.21386    8.83741   -9.32029
       O   -11.91943    8.69926  -10.20536
      H1   -12.65519    8.90445  -10.77173
       H   -13.29221   16.24023   -8.05611
       O   -12.48535   15.97924   -7.63050
      H1   -12.48799   16.32790   -6.72502
       H   -10.23711   12.22612   -8.93382
       O   -10.28747   11.79995   -8.03785
      H1   -11.10771   12.15867   -7.73013
       H   -13.23630   12.94814   -7.99503
       O   -12.60823   13.18815   -7.29491
      H1   -12.43069   14.15662   -7.38844
       H    -6.83584   12.25576   -7.28314
       O    -7.41875   13.02467   -7.15686
      H1    -8.35230   12.81275   -7.52846
       H   -11.78062   14.79515  -11.41860
       O   -12.11880   14.89156  -10.52983
      H1   -11.96182   15.80623  -10.40639
       H   -10.39047   13.96119   -9.98533
       O    -9.68178   13.36792  -10.31924
      H1    -8.88532   13.87210  -10.00432
       H   -10.03740   12.69943   -3.50931
       O    -9.66382   13.55694   -3.68685
      H1    -8.79436   13.47966   -4.09806

