42
frame 10 | Written by MDAnalysis XYZWriter (release 2.4.3)
       H   -17.52248  -13.35375   -9.39517
       O   -17.63365  -14.11317   -9.97024
      H1   -16.81469  -14.64938   -9.96279
       H   -15.70828   -9.75450  -14.47701
       O   -15.01380   -9.07965  -14.57879
      H1   -14.20976   -9.49130  -14.18459
       H   -18.29085  -13.98238  -18.13404
       O   -17.76624  -14.55995  -17.56386
      H1   -18.39104  -15.02211  -17.02450
       H   -15.68187  -10.05350  -17.63122
       O   -16.32098  -10.81689  -17.65089
      H1   -16.56393  -10.97233  -16.76575
       H   -15.19281  -12.83252  -12.47728
       O   -15.75917  -12.59081  -13.29940
      H1   -15.55103  -13.23297  -14.03979
       H   -15.83776  -13.27888  -16.59748
       O   -15.21667  -13.51127  -15.88771
      H1   -14.36920  -13.02278  -16.02613
       H   -13.78533  -10.78528  -11.08720
       O   -14.36477  -10.41380  -11.72325
      H1   -14.51146  -11.22570  -12.28720
       H   -18.96576   -9.44245  -15.11945
       O   -19.61215  -10.16214  -15.11539
      H1   -20.09205  -10.06437  -14.28118
       H   -17.90272  -17.33451  -13.47122
       O   -17.43636  -16.45253  -13.22376
      H1   -18.25444  -15.96633  -13.04982
       H   -18.64595  -13.80637  -12.84770
       O   -18.49122  -12.98345  -13.36435
      H1   -17.56988  -12.77267  -13.17467
       H   -20.24000  -15.13778  -11.78603
       O   -19.25114  -15.12160  -11.85597
      H1   -18.92461  -14.86667  -10.98391
       H   -16.81854  -11.60444  -14.49212
       O   -16.98383  -10.78021  -14.92966
      H1   -17.94995  -10.72902  -15.02154
       H   -18.72195  -12.28411  -11.20261
       O   -19.34215  -11.60901  -10.97798
      H1   -20.02573  -11.61245  -11.67677
       H   -14.57609  -17.44282  -14.29747
       O   -14.65831  -16.70555  -13.66400
      H1   -15.59093  -16.53936  -13.63177

