42
frame 1 | Written by MDAnalysis XYZWriter (release 2.4.3)
       H     6.85881  -18.53791   17.97091
       O     7.62539  -18.28365   17.42410
      H1     7.38001  -17.52420   16.82415
       H     8.87380  -14.06684   14.27241
       O     9.58908  -14.66600   14.54699
      H1     9.09756  -15.34853   15.00669
       H     5.33888  -13.20813   11.58627
       O     5.66096  -14.14073   11.71805
      H1     5.96021  -14.47051   10.83918
       H    10.15425  -15.85905   13.15652
       O    10.41151  -16.76828   12.94113
      H1     9.86220  -17.30888   13.46753
       H     7.96458  -11.89989   18.56078
       O     7.66291  -11.84341   17.59690
      H1     8.50783  -11.78808   17.16719
       H     7.02125  -16.73711   14.91720
       O     7.26123  -16.15942   15.67188
      H1     6.52791  -15.62354   15.97854
       H     7.51122  -12.27816   13.15882
       O     7.77957  -13.16042   12.80798
      H1     7.04957  -13.55502   12.23513
       H     5.17906  -17.17244   18.77769
       O     4.86555  -18.05975   18.40028
      H1     4.64156  -18.63144   19.13319
       H     8.58946  -19.09488   14.99538
       O     9.36964  -18.53854   14.87794
      H1     9.50587  -18.18958   15.78493
       H     2.80558  -17.65637   15.79325
       O     2.58393  -17.49628   14.85964
      H1     3.12459  -16.77877   14.51716
       H     4.92068  -14.23873   15.25291
       O     4.78056  -14.49858   16.16927
      H1     3.83668  -14.52253   16.17077
       H     7.05891  -13.41854   17.83892
       O     6.57388  -14.25505   17.98310
      H1     5.70234  -14.06619   17.51562
       H     6.01069  -18.27853   14.19502
       O     6.37750  -17.53847   13.63301
      H1     5.66954  -16.87442   13.44801
       H     4.70226  -15.34434   12.57381
       O     4.19105  -16.01912   13.05021
      H1     4.13090  -16.89259   12.55702

