42
frame 10 | Written by MDAnalysis XYZWriter (release 2.4.3)
       H    -7.92119  -17.62042  -11.69252
       O    -8.47221  -18.32815  -11.39285
      H1    -8.13706  -19.16512  -11.74049
       H    -4.23207  -14.94664  -11.17136
       O    -4.86636  -15.12408  -11.83882
      H1    -5.67516  -14.76558  -11.40289
       H    -4.38089  -13.53614  -14.52236
       O    -4.27394  -13.14767  -13.61646
      H1    -4.38691  -13.82304  -12.94280
       H    -5.70111  -18.24765  -12.52285
       O    -6.04546  -17.41116  -12.86556
      H1    -5.54467  -16.74031  -12.40351
       H    -9.49413  -14.38164  -14.92478
       O    -9.56353  -13.60051  -14.29148
      H1    -8.88279  -13.77600  -13.63709
       H    -7.16159  -12.81353  -16.14352
       O    -6.84415  -12.14238  -15.49918
      H1    -7.07802  -12.41476  -14.62434
       H    -6.22440  -17.06612   -7.86919
       O    -6.60800  -17.93781   -7.94475
      H1    -7.55072  -17.84292   -8.11643
       H    -6.08958  -12.72451  -13.27043
       O    -6.94863  -12.70516  -12.92342
      H1    -7.25667  -11.87872  -12.61299
       H    -4.00955  -15.31758   -8.28036
       O    -4.48496  -15.68573   -7.51023
      H1    -5.06084  -14.99531   -7.30627
       H    -2.35083  -14.28168   -8.51115
       O    -2.76158  -14.43313   -9.35181
      H1    -3.28221  -13.56363   -9.53457
       H    -3.28153  -11.94263  -12.88879
       O    -2.79073  -11.40685  -12.23860
      H1    -2.29699  -12.04275  -11.65119
       H    -8.06244  -14.71145  -11.09747
       O    -7.58923  -15.52671  -10.75342
      H1    -7.71537  -15.47298   -9.79023
       H    -6.81662  -10.78649   -8.11164
       O    -6.53708  -11.54168   -8.64125
      H1    -7.34586  -11.93638   -9.03602
       H    -3.53779  -11.25672  -10.47681
       O    -3.90266  -11.74363   -9.74441
      H1    -4.77170  -11.36426   -9.46176

