42
frame 9 | Written by MDAnalysis XYZWriter (release 2.4.3)
       H   -16.22439    4.67125   18.31082
       O   -15.35091    5.13305   18.21881
      H1   -15.27144    6.01114   18.56242
       H   -13.19699   -2.09768   15.13731
       O   -12.25726   -1.79489   15.13784
      H1   -11.78499   -2.53110   14.65423
       H   -18.17819   -4.01140   15.80973
       O   -18.79499   -4.75864   15.92525
      H1   -19.10131   -4.63187   16.82576
       H   -19.28724   -2.45008   18.36265
       O   -18.74389   -1.61931   18.36456
      H1   -19.28870   -0.88622   18.75198
       H   -12.87588    2.64200   18.88914
       O   -12.60765    1.71384   18.69348
      H1   -12.80828    1.29696   19.59248
       H   -16.47296    0.53861   18.42980
       O   -16.57332    0.01209   19.19517
      H1   -16.95022   -0.78957   18.82001
       H   -19.13804    3.57236   18.66983
       O   -19.35839    2.71046   18.23351
      H1   -18.91671    2.09667   18.82697
       H   -12.30371   -0.40169   17.75871
       O   -11.87323   -1.31237   17.77632
      H1   -11.83705   -1.56190   16.88175
       H   -14.56915   -3.20729   16.57622
       O   -14.86670   -3.09056   15.64720
      H1   -15.43696   -2.33162   15.62461
       H   -17.99285   -0.42389   12.70580
       O   -17.89902   -1.35034   12.92427
      H1   -18.24581   -1.40723   13.83556
       H   -17.48990   -1.29311   15.65015
       O   -18.30234   -1.83923   15.57095
      H1   -18.67839   -1.80775   16.47350
       H   -14.72785    2.28572   16.87785
       O   -14.92511    1.37601   17.19934
      H1   -14.06117    1.27773   17.68851
       H   -15.53940    0.37926   15.85485
       O   -15.85225   -0.38066   15.32146
      H1   -15.58461   -0.17784   14.39305
       H   -13.45193   -3.99562   18.40923
       O   -14.00557   -3.17377   18.19366
      H1   -13.37299   -2.45140   18.12086

