42
frame 1 | Written by MDAnalysis XYZWriter (release 2.4.3)
       H    14.63501  -12.81357    4.15199
       O    13.75875  -12.66009    3.66168
      H1    13.24280  -13.47531    3.81306
       H    17.73313  -11.02222    2.20395
       O    17.22110  -10.89783    3.02470
      H1    16.57880  -10.20826    2.87906
       H    17.91582  -11.54584    8.32591
       O    17.27243  -11.27288    9.04087
      H1    17.46753  -12.02130    9.65959
       H    16.38141  -12.87564    5.51791
       O    16.53229  -12.99262    4.58841
      H1    16.82394  -12.19539    4.11542
       H    14.07751   -9.26411    6.18629
       O    14.81874   -9.84773    6.34525
      H1    14.62822  -10.17542    7.23475
       H    14.29721   -9.82011    3.43340
       O    14.90438   -9.30174    2.94937
      H1    15.01455   -8.44983    3.40755
       H    16.95760   -6.78857    4.45216
       O    15.97954   -7.05835    4.38624
      H1    15.80212   -7.27477    5.29029
       H    19.25263  -10.51864    5.40529
       O    18.92942   -9.67697    5.12406
      H1    18.37502   -9.92394    4.33780
       H    14.66171  -12.84975    7.64600
       O    15.47765  -12.72891    7.20462
      H1    16.02665  -12.19624    7.75295
       H    18.27327   -8.49235    1.53191
       O    19.10687   -8.23926    2.01551
      H1    19.67471   -7.99186    1.31414
       H    18.87208   -6.95822    3.35360
       O    18.65282   -6.43947    4.17687
      H1    18.61139   -5.43553    3.91326
       H    18.64203   -8.75213    6.59439
       O    18.50012   -8.32427    7.45130
      H1    19.06546   -7.55854    7.39583
       H    15.60126   -8.50707    6.81702
       O    15.91657   -7.57531    7.04805
      H1    16.86894   -7.82904    7.15358
       H    18.99269   -8.65568    9.06774
       O    19.04518   -9.03584    9.92305
      H1    18.55018   -9.81913    9.84815

