42
frame 9 | Written by MDAnalysis XYZWriter (release 2.4.3)
       H    -8.12598  -16.31634  -10.43805
       O    -8.72149  -17.02781  -10.73594
      H1    -8.16756  -17.58765  -11.30276
       H    -4.38341  -16.45297  -11.07772
       O    -5.25535  -16.22249  -11.34124
      H1    -5.73326  -15.68958  -10.67071
       H    -7.71316  -16.21224  -15.06945
       O    -8.52404  -16.07734  -14.50301
      H1    -8.43330  -16.46186  -13.61222
       H    -4.46426  -14.04627  -14.04575
       O    -4.93484  -13.72976  -13.22915
      H1    -4.73024  -14.38927  -12.58560
       H    -4.95400  -17.69068  -14.45862
       O    -5.02730  -16.78602  -14.15572
      H1    -4.96402  -16.87044  -13.20404
       H    -7.08345  -19.08827   -5.32414
       O    -6.73955  -18.19448   -5.45148
      H1    -6.39688  -18.24948   -6.34513
       H    -5.39135  -17.10878   -8.21338
       O    -5.94575  -17.91332   -8.23602
      H1    -6.87410  -17.80280   -8.56354
       H    -1.98993  -17.12277  -11.74017
       O    -2.69001  -17.55266  -11.17445
      H1    -2.39426  -17.54772  -10.22523
       H    -9.40405  -18.84109   -9.81337
       O    -9.00677  -19.27508   -9.03182
      H1    -9.61475  -20.04507   -8.87362
       H    -6.84924  -19.32833  -11.18783
       O    -7.52540  -19.09127  -11.91779
      H1    -8.18835  -19.75042  -11.90421
       H    -3.67679  -15.14562   -7.83786
       O    -4.34616  -15.80504   -7.51373
      H1    -5.02568  -15.20953   -7.28018
       H    -0.09744  -17.43528   -9.69487
       O    -0.73982  -17.74820   -9.03939
      H1    -0.56134  -18.71475   -9.00765
       H    -7.51235  -14.16402  -10.57520
       O    -7.28297  -14.84575   -9.99302
      H1    -7.78971  -14.66124   -9.18672
       H    -5.02591  -18.63083  -11.21410
       O    -5.15235  -19.20491  -10.45932
      H1    -5.45406  -18.68886   -9.71632

