42
frame 10 | Written by MDAnalysis XYZWriter (release 2.4.3)
       H    -3.97239    9.80965   -3.29971
       O    -3.82515   10.65939   -2.85332
      H1    -4.03057   10.44835   -1.90143
       H    -7.31376   12.00237   -3.97274
       O    -7.16427   12.81993   -4.39477
      H1    -7.33253   12.76035   -5.36061
       H    -8.71842   13.03133   -0.46504
       O    -8.11480   12.35967   -0.20436
      H1    -7.27481   12.87360   -0.13982
       H    -9.02332   12.68397    2.67923
       O    -8.66173   11.84219    2.43004
      H1    -8.13669   11.99331    1.63793
       H    -4.50945   12.25158   -2.86363
       O    -4.75119   13.12341   -3.14985
      H1    -5.45265   13.09271   -3.74540
       H    -9.58086   14.34559   -2.06831
       O    -9.68574   14.61219   -1.15664
      H1   -10.44634   15.22727   -1.23349
       H   -11.25998   11.18209   -1.93041
       O   -11.62148   11.68593   -2.64868
      H1   -12.24253   12.18725   -2.11409
       H    -4.43119   11.68795    0.14154
       O    -4.16782   10.75811   -0.02335
      H1    -3.24112   10.79247    0.11356
       H    -5.26398   13.39708   -1.23943
       O    -5.42565   13.23072   -0.27434
      H1    -5.05005   13.95143    0.17371
       H    -7.76173    9.32973    0.25465
       O    -8.66877    9.04700   -0.05656
      H1    -8.58743    8.44181   -0.79750
       H    -7.53903   11.05275   -2.00696
       O    -7.40704   10.41423   -2.76091
      H1    -6.47601   10.28014   -2.77722
       H   -10.07850   10.29095   -0.17992
       O   -11.01068   10.52583   -0.04942
      H1   -11.49976    9.63971   -0.11784
       H    -8.20093    8.82600   -3.31328
       O    -8.44431    8.13226   -3.91436
      H1    -9.37412    8.31961   -4.18314
       H   -10.03740   12.69943   -3.50931
       O    -9.66382   13.55694   -3.68685
      H1    -8.79436   13.47966   -4.09806

