42
frame 1 | Written by MDAnalysis XYZWriter (release 2.4.3)
       H    16.64197   -2.22401  -15.18197
       O    16.78397   -1.89049  -14.28430
      H1    17.52575   -1.24298  -14.21932
       H    12.99090   -1.07084  -18.03341
       O    13.79884   -0.80248  -17.57778
      H1    14.44344   -1.52547  -17.75761
       H    16.78651   -3.13183  -12.93825
       O    16.82756   -3.83027  -12.27964
      H1    16.07491   -4.41689  -12.45125
       H    18.73170    0.63826  -13.69571
       O    18.83025   -0.08794  -14.28177
      H1    19.38461    0.17973  -15.03959
       H    16.77475   -1.92502  -17.09302
       O    15.88255   -2.19142  -16.86435
      H1    15.97157   -3.17937  -16.73132
       H    13.55224   -4.93942  -18.94765
       O    14.25144   -5.62505  -18.97967
      H1    15.04329   -5.03012  -18.83692
       H    13.38218   -1.10284  -14.28453
       O    12.78610   -1.41024  -14.95435
      H1    13.30125   -1.24349  -15.77039
       H    19.25371   -3.58907  -19.13101
       O    19.30563   -4.03989  -18.22943
      H1    19.96851   -3.44833  -17.77932
       H    16.99707    0.56969  -18.38042
       O    17.66611   -0.09627  -18.36766
      H1    18.21551   -0.15249  -19.15786
       H    14.05587    3.38958  -15.52928
       O    14.92702    3.16848  -15.15242
      H1    15.16912    2.41449  -15.69689
       H    17.32050   -4.77294  -16.59810
       O    16.36555   -4.90540  -16.38165
      H1    16.33661   -5.09667  -15.44333
       H    15.52979   -1.16406  -13.15385
       O    14.84141   -0.95262  -12.51320
      H1    14.70312    0.01204  -12.51851
       H    11.67582   -4.53527  -18.31901
       O    12.34033   -3.83966  -18.45345
      H1    12.81926   -3.80036  -17.60655
       H    16.51357    2.40461  -18.29038
       O    15.89978    1.69249  -18.03284
      H1    15.42106    1.44631  -18.85242

