42
frame 10 | Written by MDAnalysis XYZWriter (release 2.4.3)
       H    -8.37331   11.96051  -12.66979
       O    -8.61633   12.82820  -12.97498
      H1    -9.08865   13.18314  -12.24232
       H    -4.18075   13.52840  -10.43675
       O    -4.17443   12.60774  -10.70737
      H1    -3.96685   12.56811  -11.64483
       H    -6.29792   15.76346  -16.26785
       O    -5.45469   15.30426  -16.17382
      H1    -4.95799   15.45922  -16.95072
       H    -5.98146   13.47575  -16.19638
       O    -6.34806   12.64647  -16.50855
      H1    -6.04488   11.89072  -15.98149
       H   -11.09358   15.64484  -13.58653
       O   -11.25862   14.67011  -13.34130
      H1   -10.81622   14.11491  -13.99566
       H    -6.60840   14.11070  -10.88440
       O    -7.17501   14.74528  -10.45533
      H1    -6.70064   14.98930   -9.67560
       H    -8.46196   16.97690  -12.21838
       O    -8.37110   17.55533  -11.42871
      H1    -8.32244   17.07370  -10.61846
       H    -7.03546   10.11165  -11.28296
       O    -7.58891   10.37519  -11.98901
      H1    -8.35954    9.78191  -11.87593
       H    -4.42801   11.26987  -13.87435
       O    -4.16217   12.14894  -13.54004
      H1    -4.99838   12.65512  -13.56809
       H    -7.43065   16.96855  -14.39463
       O    -8.11038   16.31325  -14.15645
      H1    -8.21806   15.76583  -14.94380
       H    -8.45865   14.46000  -16.97445
       O    -8.47351   14.21627  -16.06774
      H1    -7.67145   13.67920  -16.04621
       H    -7.16198   13.98778  -13.23221
       O    -6.19433   14.21332  -13.33826
      H1    -6.21598   15.20161  -13.35019
       H    -9.59230   12.77090  -15.33760
       O   -10.59934   12.61473  -15.24444
      H1   -10.70078   11.75917  -14.73599
       H   -10.39047   13.96119   -9.98533
       O    -9.68178   13.36792  -10.31924
      H1    -8.88532   13.87210  -10.00432

