42
frame 10 | Written by MDAnalysis XYZWriter (release 2.4.3)
       H    18.16143   16.73644   -7.23953
       O    18.92242   17.25355   -6.84074
      H1    19.21500   16.78831   -6.03718
       H    16.35435   16.69320   -8.90709
       O    16.95821   16.10641   -8.41023
      H1    17.54718   15.68514   -9.08059
       H    13.76005   18.40348   -0.67356
       O    14.63487   18.61656   -1.18321
      H1    14.64602   18.01529   -1.95498
       H    12.68046   18.03565   -8.81824
       O    12.56087   18.74222   -9.43566
      H1    12.31839   18.39748  -10.28869
       H    10.87985   18.43287   -3.96191
       O    11.25321   18.32743   -4.83209
      H1    12.18455   18.48327   -4.92506
       H    18.90604   20.11487   -5.84905
       O    18.08437   19.71425   -6.16733
      H1    18.30879   18.77810   -6.40642
       H    14.08551   18.88131   -9.21581
       O    15.07915   18.78451   -9.11850
      H1    15.39933   18.36229   -9.95671
       H    10.34337   17.63638   -1.94411
       O    10.39843   18.63912   -2.14661
      H1     9.59117   18.96446   -1.76278
       H    10.40714   14.94267   -5.04763
       O    11.26839   15.40528   -5.16435
      H1    11.02264   16.30725   -4.77878
       H    14.10091   19.92237   -5.77461
       O    14.06522   18.96270   -5.81145
      H1    14.55283   18.71182   -6.58330
       H    10.20586   17.75513   -6.43271
       O     9.70339   17.65823   -7.24508
      H1     8.76166   17.77309   -6.93412
       H    16.49211   18.19328   -3.89190
       O    17.29523   18.76118   -3.80521
      H1    17.26796   19.28840   -4.60556
       H    14.34015   17.35386   -4.13761
       O    14.96331   17.19947   -3.40411
      H1    15.18120   16.24513   -3.38924
       H    13.38649   15.68547   -7.72414
       O    12.87514   16.50829   -7.66020
      H1    12.10533   16.26911   -7.11295

