42
frame 10 | Written by MDAnalysis XYZWriter (release 2.4.3)
       H    19.49274  -17.30291   -2.52243
       O    18.92350  -16.54898   -2.33886
      H1    18.06769  -16.71600   -2.69873
       H    15.68796  -15.07162    0.19103
       O    15.60444  -14.18368   -0.26276
      H1    15.14685  -14.46661   -1.08486
       H    17.78516  -14.34865   -0.31126
       O    18.56517  -13.84496   -0.12827
      H1    18.38070  -13.37095    0.69905
       H    12.41112  -17.21166   -4.47083
       O    11.80780  -16.58580   -4.04002
      H1    11.68573  -15.90507   -4.72457
       H    12.09131  -18.12301   -0.69114
       O    11.95767  -18.98095   -0.23780
      H1    11.67702  -19.57555   -0.97912
       H    18.93439  -18.90966    2.08259
       O    18.40226  -19.26245    2.81026
      H1    17.54135  -19.52223    2.46408
       H    15.06559  -18.94779   -1.10568
       O    15.31883  -18.00821   -0.99627
      H1    15.77341  -17.85388   -0.13525
       H    13.16533  -12.58560   -0.96599
       O    12.70110  -13.00068   -1.73651
      H1    13.41256  -13.46270   -2.18945
       H    15.18169  -15.31239   -2.93967
       O    14.43056  -14.77475   -2.72361
      H1    13.81030  -15.35064   -2.25374
       H    11.97663  -16.46026   -2.31799
       O    12.50394  -16.49623   -1.41416
      H1    11.88773  -16.00937   -0.81544
       H    17.72576  -16.64611    0.86079
       O    16.73841  -16.46243    0.99835
      H1    16.62759  -16.24560    1.94496
       H    13.97901  -17.98016    2.71266
       O    14.49354  -18.34362    3.46168
      H1    15.11430  -17.58751    3.63500
       H    13.80602  -16.82335    0.74657
       O    13.30984  -16.75212    1.60828
      H1    12.62382  -17.44808    1.56260
       H    16.55068  -16.77967   -4.50390
       O    16.58235  -16.55826   -3.59568
      H1    16.11203  -17.31676   -3.19159

