42
frame 10 | Written by MDAnalysis XYZWriter (release 2.4.3)
       H    13.29943   17.79929   16.76302
       O    13.65894   17.59787   15.86860
      H1    13.91186   16.65976   15.87159
       H    16.73907   18.41878   13.65498
       O    17.24812   17.72020   14.13093
      H1    18.10888   17.67953   13.63251
       H    12.70352   14.53270   18.04967
       O    12.79630   14.40864   19.00804
      H1    13.22964   13.54656   19.18414
       H    11.37280   14.41297   15.69403
       O    11.47445   13.83194   16.48557
      H1    12.27683   13.33306   16.27662
       H    14.55990   15.88035   19.29278
       O    15.41156   16.29824   19.23234
      H1    15.37208   17.11328   19.78059
       H    12.62692   18.85849   18.77915
       O    12.41740   18.13329   18.23954
      H1    11.46208   18.11112   18.20427
       H    15.75848   17.87220   16.64300
       O    16.36362   17.67730   17.33075
      H1    15.84848   17.16745   18.00635
       H    18.39143   15.82442   15.97710
       O    17.53172   15.46514   16.20054
      H1    17.29561   16.22432   16.80517
       H    15.38869   14.73450   12.93373
       O    14.50935   14.89598   13.30289
      H1    13.99382   14.10918   13.07401
       H    13.70555   16.50217   12.49115
       O    13.24417   17.16208   11.95882
      H1    13.71562   17.13502   11.11990
       H    14.67028   14.80005   14.99555
       O    14.61696   14.87406   15.98455
      H1    15.54470   15.08036   16.19715
       H    16.30561   11.48922   15.19997
       O    15.75231   12.15119   15.67128
      H1    15.60227   12.83321   15.00635
       H     9.91846   15.27855   14.07117
       O    10.83920   15.44572   14.11455
      H1    10.91339   16.27629   14.61057
       H    10.83912   18.57375   15.79132
       O    11.14679   17.99663   15.08733
      H1    12.06964   17.89733   15.40115

