42
frame 10 | Written by MDAnalysis XYZWriter (release 2.4.3)
       H    -8.56511    8.46242    6.52013
       O    -8.02443    7.72714    6.99269
      H1    -8.61073    7.23977    7.59275
       H   -10.44323   10.11966    6.22114
       O    -9.50625    9.94932    5.96488
      H1    -9.49546    9.75687    5.02740
       H    -8.31574    6.47379    4.10841
       O    -8.07273    7.23297    3.64313
      H1    -7.85464    6.73870    2.87043
       H    -5.91124    6.17810    9.64921
       O    -5.81865    7.08413    9.94318
      H1    -6.07410    7.73952    9.21412
       H    -5.31787    9.12857    2.65507
       O    -4.63056    8.81921    3.36751
      H1    -5.21965    8.72317    4.12938
       H    -2.68550    4.75404    4.67172
       O    -2.53401    5.68186    4.37749
      H1    -3.18134    6.14094    5.01337
       H    -4.75883    8.44392   10.17949
       O    -4.25751    9.29253   10.18074
      H1    -4.08853    9.42876   11.13510
       H    -4.63528    7.60026    6.02296
       O    -5.47307    7.36009    5.60698
      H1    -6.09480    7.48298    6.35274
       H    -5.42398    3.72462    8.82034
       O    -5.98423    4.54191    8.69333
      H1    -5.90892    4.69007    7.74625
       H    -5.14760    9.05474    7.44041
       O    -5.96005    9.06091    7.91832
      H1    -6.66292    8.66983    7.38843
       H    -6.08602    4.13246    5.35740
       O    -5.77772    3.76151    6.16693
      H1    -4.85873    3.75127    5.90598
       H    -6.66677   10.72214    7.33685
       O    -6.53215   11.59153    6.86485
      H1    -7.39186   11.98675    6.63300
       H    -5.13539    5.53967    3.23222
       O    -5.86667    5.29096    3.86183
      H1    -5.69362    5.93291    4.51550
       H    -3.12795    7.93892    7.64397
       O    -3.21010    8.16472    6.66639
      H1    -2.78387    9.02297    6.56145

