42
frame 10 | Written by MDAnalysis XYZWriter (release 2.4.3)
       H   -12.05296   15.50346    0.12838
       O   -12.12097   16.07104   -0.66052
      H1   -12.79959   15.72065   -1.23150
       H    -9.27632   19.51848    1.13967
       O    -9.93614   18.97068    0.68557
      H1   -10.49756   18.59861    1.39919
       H    -8.71842   13.03133   -0.46504
       O    -8.11480   12.35967   -0.20436
      H1    -7.27481   12.87360   -0.13982
       H   -11.48447   16.86924    1.93145
       O   -11.44263   17.58620    2.59214
      H1   -10.88245   17.21366    3.25383
       H    -7.84246   16.06822   -3.70756
       O    -7.16060   15.72810   -3.07534
      H1    -7.09613   14.80166   -3.28319
       H    -9.58086   14.34559   -2.06831
       O    -9.68574   14.61219   -1.15664
      H1   -10.44634   15.22727   -1.23349
       H    -5.42865   14.12269    2.19774
       O    -4.86352   14.77680    1.77300
      H1    -5.31783   15.60047    1.70292
       H    -9.93079   14.01558    4.31269
       O    -9.44092   14.41498    3.61898
      H1   -10.16400   14.79768    3.01608
       H    -5.83849   18.62884   -1.11427
       O    -6.36792   18.86765   -0.32287
      H1    -5.67953   19.46142    0.02453
       H    -5.26398   13.39708   -1.23943
       O    -5.42565   13.23072   -0.27434
      H1    -5.05005   13.95143    0.17371
       H    -7.12881   16.72566    1.67282
       O    -6.20400   16.99933    1.84748
      H1    -5.95082   17.55306    1.04110
       H    -4.43298   17.26241   -1.62448
       O    -4.97555   17.46567   -2.38542
      H1    -5.70598   16.88350   -2.56161
       H    -8.53344   16.00046    0.04308
       O    -8.77895   16.52267    0.78340
      H1    -9.15133   17.37242    0.57300
       H   -11.44568   13.91491    1.35287
       O   -11.15780   14.86597    1.57504
      H1   -10.29120   14.92722    1.11712

