42
frame 10 | Written by MDAnalysis XYZWriter (release 2.4.3)
       H     4.94697   11.84445   18.38968
       O     4.39217   12.13589   17.62051
      H1     4.95761   11.92378   16.85591
       H     3.10940   10.38474   17.52593
       O     2.87802    9.47093   17.39863
      H1     3.72629    9.04938   17.27660
       H     5.30411   12.58193   14.58282
       O     5.78345   11.92353   15.20804
      H1     5.92571   11.05289   14.73096
       H     4.10468   14.49925   14.01610
       O     4.34319   13.64297   13.69394
      H1     4.76995   13.68406   12.85528
       H     8.87873   10.96465   17.56670
       O     8.30156   10.29980   17.17667
      H1     8.47464    9.57950   17.80601
       H     7.44527   15.70480   13.78030
       O     7.99335   15.32816   14.46927
      H1     8.00795   14.39444   14.47014
       H     3.92945   13.75007   17.90845
       O     3.65563   14.61515   18.17579
      H1     3.41793   14.59237   19.10214
       H     8.90403   12.10552   15.37275
       O     8.27344   12.62377   14.84455
      H1     7.42364   12.32297   15.17444
       H     2.24023    9.98526   14.30435
       O     1.94869    9.23455   14.88811
      H1     2.13143    9.45504   15.81941
       H     6.65399   11.98280   19.84906
       O     6.41564   11.35781   19.18068
      H1     7.19030   11.19777   18.57628
       H     5.63508   17.20592   18.55668
       O     4.89451   17.19992   17.88326
      H1     4.58644   16.24777   18.01261
       H     5.17535    7.28935   17.27429
       O     5.29353    8.18077   17.65323
      H1     6.14908    8.53259   17.34891
       H     6.86028    8.84289   14.73546
       O     6.48928    9.51135   14.14192
      H1     7.10351    9.49204   13.42654
       H     3.28306   10.72691   12.61700
       O     2.72847   11.32172   13.13336
      H1     3.24886   12.08009   13.36554

