45
frame 2 | Written by MDAnalysis XYZWriter (release 2.4.3)
       H   -17.15489   -2.04756  -12.27287
       O   -16.64163   -1.25521  -12.64868
      H1   -16.37038   -1.56087  -13.53040
       H   -18.17957    0.37040  -12.48459
       O   -18.38910    1.11785  -13.07355
      H1   -18.04743    1.00849  -13.96961
       H   -15.83529    0.29906  -13.27752
       O   -15.34036    1.13346  -13.12224
      H1   -14.96689    1.46878  -13.97197
       H   -13.34415    1.79197  -14.78370
       O   -14.03871    2.32619  -15.22273
      H1   -14.34502    3.16854  -14.83577
       H   -15.15243   -1.22294  -11.19703
       O   -14.35462   -1.55527  -10.72489
      H1   -14.33256   -2.45095  -11.17438
       H   -16.01633    0.56505  -17.76977
       O   -15.33962    0.47766  -17.13780
      H1   -15.00998    1.33613  -16.85691
       H   -16.11423    2.29648  -12.05220
       O   -16.52744    3.03467  -11.50739
      H1   -17.39043    3.04586  -11.93645
       H   -12.72591   -1.26711  -11.43826
       O   -11.94054   -1.01516  -11.94019
      H1   -12.32468   -0.55140  -12.71586
       H   -19.95441   -1.24110  -10.51275
       O   -19.11346   -1.57106  -10.80563
      H1   -18.84035   -2.17821  -10.08444
       H   -19.13855   -2.16548  -15.16317
       O   -18.71867   -2.12603  -15.96158
      H1   -18.89851   -1.20231  -16.24067
       H   -15.44057    1.98146   -9.88600
       O   -14.93724    1.78567   -9.07036
      H1   -15.37182    2.17268   -8.32444
       H   -15.23739    4.80880  -13.26854
       O   -14.36332    4.32585  -13.34145
      H1   -14.37019    3.76274  -12.55110
       H   -15.74874   -0.70277  -15.84539
       O   -16.10895   -1.45187  -15.28878
      H1   -16.83334   -1.87528  -15.76114
       H   -14.27734   -1.99872  -15.66518
       O   -13.37395   -2.26474  -15.90908
      H1   -12.89502   -2.37419  -15.10308
       H   -11.71583    0.16956  -15.12394
       O   -12.06494    0.55565  -14.28686
      H1   -11.36223    1.18493  -13.95554

