45
frame 1 | Written by MDAnalysis XYZWriter (release 2.4.3)
       H   -10.94733    8.31248    9.77606
       O   -10.81608    8.68379   10.70589
      H1   -11.32910    8.10350   11.34901
       H   -11.41296   10.09197    9.77099
       O   -11.99100   10.68960    9.25974
      H1   -11.45608   11.45947    9.00701
       H   -12.32067    8.47599   13.01915
       O   -12.79697    8.02213   12.33020
      H1   -12.91819    7.08412   12.64551
       H   -13.62441   10.41927    9.01422
       O   -14.56953   10.37832    8.86033
      H1   -15.01304   11.27852    9.00317
       H   -11.86770    8.78646    8.14841
       O   -11.19099    8.12937    8.14189
      H1   -11.65820    7.28253    8.07382
       H   -13.98240   10.80399   12.04304
       O   -13.25327   11.46369   12.07794
      H1   -12.87203   11.54167   11.17588
       H   -10.50259   13.83378   11.88392
       O   -11.34117   14.20010   12.09593
      H1   -11.76282   13.35109   12.32833
       H    -9.25695    7.65261   10.53024
       O    -8.49361    7.19636   10.18661
      H1    -7.79666    7.78442   10.20491
       H    -9.82407   11.98066   10.96329
       O    -9.86843   12.39581   10.09971
      H1    -8.96302   12.74238   10.01291
       H   -15.92905    9.04906   11.88705
       O   -15.22817    9.49161   12.41470
      H1   -14.41606    8.99000   12.18998
       H   -13.00913   11.94473    5.54919
       O   -13.45980   11.07914    5.74074
      H1   -13.41245   11.07726    6.72858
       H   -10.30885   10.98170    6.98764
       O   -10.12331   10.79944    6.06139
      H1   -10.29806    9.83174    6.12227
       H   -10.28427   10.15958   11.84895
       O   -10.57068   11.01796   12.33087
      H1   -11.57454   11.02719   12.26872
       H   -14.38310    6.82963    7.86309
       O   -14.11376    7.71079    7.55081
      H1   -14.98003    8.21822    7.59466
       H   -12.18223   13.41956    8.12955
       O   -11.62568   13.13416    7.38240
      H1   -11.10465   13.89339    7.16182

