45
frame 1 | Written by MDAnalysis XYZWriter (release 2.4.3)
       H   -19.76917    3.62020    1.93720
       O   -18.89066    3.17579    1.94348
      H1   -18.89494    2.62325    1.14960
       H   -19.03228   -1.73552   -0.64046
       O   -18.79613   -2.29239    0.14210
      H1   -18.44197   -1.66407    0.84199
       H   -16.71492    1.87581    4.09025
       O   -16.90852    1.20962    4.77037
      H1   -17.10148    1.68540    5.60004
       H   -14.93802   -0.00554   -0.12774
       O   -15.35168    0.51563    0.50603
      H1   -14.87549    0.07673    1.23171
       H   -17.93576    6.65756    2.68000
       O   -17.44643    7.04372    3.40598
      H1   -16.56198    6.83941    3.07636
       H   -13.20844    2.59844    1.50355
       O   -14.07773    2.72276    1.07285
      H1   -14.28216    1.78380    0.88144
       H   -19.03325    1.09337    4.79082
       O   -19.64319    1.81312    4.74813
      H1   -19.38412    2.44473    5.44829
       H   -17.83967    4.84665   -0.16725
       O   -17.61542    4.69953   -1.07506
      H1   -18.35295    5.15245   -1.56505
       H   -17.17199    3.37847    2.72652
       O   -16.23653    3.22524    2.84755
      H1   -15.66227    3.30451    2.10073
       H   -17.62095   -0.12339    2.85384
       O   -17.24751   -0.84661    2.27158
      H1   -16.54748   -0.32646    1.85134
       H   -15.17247    4.51254    5.53061
       O   -14.51665    4.23200    4.86346
      H1   -15.10229    4.23236    4.06075
       H   -17.53905    2.83956   -0.70252
       O   -17.84810    1.98162   -0.41719
      H1   -17.07319    1.38829   -0.25448
       H   -18.23536    2.26557   -2.51223
       O   -18.70754    2.27870   -3.34588
      H1   -18.31846    2.95753   -3.91914
       H   -19.34932    6.82437    0.83466
       O   -18.83670    6.07326    1.12332
      H1   -19.54801    5.48726    1.36993
       H   -14.65761    4.47334   -0.09814
       O   -14.81831    5.28875   -0.59495
      H1   -15.69578    5.15072   -0.96146

