45
frame 1 | Written by MDAnalysis XYZWriter (release 2.4.3)
       H    11.32221   10.71243  -14.71022
       O    11.49651   11.57620  -14.44767
      H1    12.35647   11.78627  -13.96282
       H    11.38745   16.58328  -16.34464
       O    12.05692   15.93826  -16.56072
      H1    11.69546   15.08602  -16.72504
       H    10.24729   15.93239  -13.54489
       O     9.80461   16.27064  -14.29346
      H1     9.43462   15.56209  -14.84031
       H     5.27086   13.81023  -15.45650
       O     6.24206   13.87696  -15.52755
      H1     6.60609   13.02151  -15.25550
       H     7.78270    9.91742  -16.95700
       O     8.67629   10.25980  -16.74516
      H1     8.89479   10.74014  -17.55928
       H     7.51302   14.89493  -16.08184
       O     8.36884   15.10003  -16.48042
      H1     8.38571   16.03419  -16.83665
       H     8.84985   16.82201  -18.88716
       O     8.96943   17.31717  -18.03870
      H1     9.81961   17.73193  -18.23428
       H     6.11864   13.19785  -17.35670
       O     6.29823   12.54968  -18.06524
      H1     7.22253   12.29507  -17.93331
       H     9.40386   13.58547  -18.98080
       O     9.18007   13.11567  -18.18431
      H1     8.70704   13.93648  -17.79583
       H    12.20214   16.92221  -18.20177
       O    11.81739   17.32484  -19.01319
      H1    12.39536   18.02692  -19.25175
       H     5.36550   10.50321  -17.43105
       O     5.83202    9.68051  -17.39594
      H1     6.16003    9.62890  -18.31489
       H    12.34042   11.92493  -17.72513
       O    12.50249   11.44015  -18.54048
      H1    13.05338   10.71590  -18.24572
       H    11.33943    9.27825  -19.33034
       O    11.97427    8.55673  -19.16870
      H1    12.52737    8.61341  -19.92931
       H    10.65918   13.14808  -17.06578
       O    11.53980   12.97935  -16.76099
      H1    11.49150   12.53843  -15.87539
       H     8.26090   12.07345  -13.99858
       O     7.62274   11.80606  -14.69844
      H1     8.18447   11.46900  -15.38736

