45
frame 1 | Written by MDAnalysis XYZWriter (release 2.4.3)
       H     6.38966   12.60637   15.59977
       O     7.15453   12.68553   16.17571
      H1     7.43257   11.80726   16.44752
       H     4.54381   13.81186   14.36675
       O     5.03023   13.04035   14.12658
      H1     4.97771   13.03351   13.20476
       H     3.72409    6.78829   16.65554
       O     4.50595    7.35951   16.70661
      H1     4.22008    8.30643   16.72086
       H    10.02382    8.05324   15.34149
       O     9.67571    8.86938   15.05939
      H1     8.87566    8.73898   14.50178
       H     5.62765    7.02075   15.41622
       O     6.05811    6.51764   14.67757
      H1     5.45646    5.98629   14.16152
       H     4.27266   10.09803   15.74929
       O     3.89265    9.97710   16.64622
      H1     4.31970   10.57948   17.27711
       H     5.49728   13.25837   11.10516
       O     5.43261   12.38015   11.42815
      H1     4.48894   12.21774   11.28387
       H     6.93361   11.45154   10.46773
       O     7.69024   11.04718   10.08762
      H1     8.41095   11.40849   10.60649
       H     1.45226    9.91432   13.18155
       O     2.13906   10.58997   13.15259
      H1     1.59450   11.40118   13.31011
       H     4.76741    6.28209   11.41600
       O     4.86133    6.93788   10.68824
      H1     5.74229    7.31744   10.81992
       H     1.99921   10.01052   17.27399
       O     1.09095    9.94503   17.42765
      H1     0.69870   10.83172   17.33446
       H     6.98810    8.58066   11.79112
       O     7.16125    8.36282   10.86174
      H1     7.32866    9.29678   10.58194
       H     4.02498   10.16170   13.57619
       O     4.84769   10.21799   14.01554
      H1     4.91402   11.15361   14.11849
       H     2.73892   12.59202   10.89371
       O     2.94336   11.63088   10.94028
      H1     2.60506   11.24747   11.76250
       H     6.75626    7.99227   13.84234
       O     7.19438    8.83821   13.70054
      H1     6.45713    9.45298   13.62385

