45
frame 0 | Written by MDAnalysis XYZWriter (release 2.4.3)
       H     5.59963   18.43647   15.15522
       O     5.29625   19.32712   14.87697
      H1     4.60077   19.40318   15.55278
       H     0.70659   19.15664   12.79603
       O     1.18842   19.46248   13.58755
      H1     1.56531   18.60922   13.93143
       H    -1.47210   15.66171   19.57443
       O    -2.23755   16.16782   19.28034
      H1    -3.06658   15.81308   19.67234
       H     3.02455   16.82206   13.09988
       O     2.30639   16.63750   13.74274
      H1     1.76733   16.04697   13.15517
       H     2.55944   13.72940   17.87418
       O     1.84519   14.26211   17.45089
      H1     1.77895   14.99604   18.05198
       H     4.23052   17.93274   17.64747
       O     3.70662   18.23137   16.89144
      H1     3.89919   17.57863   16.22029
       H     0.58409   13.25034   17.13035
       O    -0.10352   12.54179   16.99134
      H1    -0.80339   12.73113   17.63963
       H     0.31633   17.05757   16.67610
       O     0.97075   16.99205   17.39516
      H1     1.81082   17.37011   17.03005
       H    -0.89298   13.46401   15.20706
       O    -1.23191   13.53858   14.33687
      H1    -0.89615   14.40964   14.09181
       H     5.39929   16.43722   19.22604
       O     5.00098   17.30795   19.41680
      H1     5.79203   17.81980   19.67391
       H    -3.59168   16.08898   13.33921
       O    -2.74820   16.35828   12.96984
      H1    -2.19893   16.37841   13.76357
       H    -4.46266   16.64462   16.92396
       O    -3.56725   16.42087   16.71980
      H1    -3.14316   16.07627   17.54408
       H    -2.00473   19.22440   14.20264
       O    -2.46342   19.08034   13.34840
      H1    -2.55666   18.14339   13.31877
       H    -2.13643   16.91034   16.00765
       O    -1.27433   17.10418   15.64800
      H1    -1.17933   18.02352   15.87066
       H     3.04714   15.43985   14.67092
       O     3.56450   14.90403   15.26768
      H1     3.05040   14.77658   16.06741

