45
frame 1 | Written by MDAnalysis XYZWriter (release 2.4.3)
       H   -13.98098   13.36259  -13.48998
       O   -13.90215   12.65773  -12.84994
      H1   -14.54122   12.01123  -13.11587
       H   -14.93530   15.52470  -13.09064
       O   -15.05556   15.77381  -12.14985
      H1   -15.52721   15.04719  -11.75870
       H   -18.53219   17.43588  -12.48200
       O   -18.56183   17.08703  -13.38600
      H1   -18.14762   17.71191  -13.99716
       H   -14.92050   19.73330  -16.86864
       O   -15.15220   18.82448  -16.73461
      H1   -15.18735   18.58361  -17.69059
       H   -10.91125   15.77435  -13.78703
       O   -11.46686   15.42809  -14.50085
      H1   -10.84086   15.00265  -15.05876
       H   -10.80179   17.50142  -13.22702
       O   -10.43358   17.06164  -12.47501
      H1    -9.50489   17.28374  -12.47609
       H   -17.53455   14.38037  -15.23579
       O   -18.29031   14.58933  -14.77794
      H1   -18.10808   15.15995  -14.05305
       H   -13.38988   15.14030  -14.76253
       O   -14.28502   14.87463  -14.60514
      H1   -14.62560   14.71656  -15.51305
       H   -12.40317   16.07016  -10.23368
       O   -13.19374   16.65842  -10.11748
      H1   -13.88973   16.40072  -10.74637
       H   -15.71623   20.16921  -11.17585
       O   -15.41963   19.38777  -10.73898
      H1   -16.23264   18.98095  -10.42510
       H   -18.00805   18.13974  -16.28422
       O   -17.55978   18.67888  -15.64392
      H1   -16.63966   18.59490  -16.01022
       H   -12.33358   18.03481  -15.55583
       O   -12.26853   18.37639  -14.66861
      H1   -13.18882   18.53872  -14.41186
       H   -10.73924   18.96615  -14.56638
       O    -9.78407   19.17175  -14.62591
      H1    -9.67924   20.05102  -14.21753
       H   -11.36363   18.54792  -11.65402
       O   -12.12563   19.00419  -11.20989
      H1   -12.79602   18.33904  -10.93321
       H   -14.87473   17.39041  -13.47227
       O   -14.83836   18.38851  -13.32900
      H1   -15.06956   18.54787  -12.41058

