45
frame 1 | Written by MDAnalysis XYZWriter (release 2.4.3)
       H   -15.83312   12.50929   17.88839
       O   -15.97561   11.61471   17.50933
      H1   -15.73731   11.07498   18.31360
       H    -9.59259   13.99568   15.36860
       O    -8.76279   14.34238   15.09128
      H1    -8.70375   15.24758   15.39978
       H    -9.75866   16.83536   17.34573
       O    -9.29076   16.55601   16.54033
      H1    -8.87657   17.24040   15.99614
       H   -14.38240   12.46218   16.19847
       O   -13.88788   13.07237   15.59753
      H1   -14.54708   13.31851   14.90309
       H   -14.64020   15.09839   14.04955
       O   -15.55159   14.77402   13.91001
      H1   -16.09991   14.87216   14.69493
       H   -12.12412   17.53912   17.32225
       O   -12.64153   16.80348   17.18982
      H1   -13.52879   17.07487   17.15395
       H   -15.26550   18.45039   17.70437
       O   -15.12516   18.49391   16.74991
      H1   -14.65730   19.36860   16.58136
       H   -10.61442   11.98453   16.79765
       O   -10.91626   12.53910   16.09960
      H1   -11.83186   12.21912   15.91256
       H   -13.99884   10.49634   14.95786
       O   -13.41763   10.12301   15.59096
      H1   -14.10821    9.58144   16.06882
       H   -12.59937   16.02600   15.30580
       O   -12.87174   15.87788   14.33403
      H1   -12.45003   15.05114   14.08686
       H   -11.61727   13.52668   17.53819
       O   -11.92964   13.72289   18.44780
      H1   -11.14927   13.98921   18.95654
       H   -15.63979   19.71457   19.72253
       O   -14.97811   19.04291   19.44219
      H1   -14.34060   19.54331   18.90994
       H   -17.58232   13.88388   15.59808
       O   -17.18342   14.65506   16.01917
      H1   -17.87634   15.37065   16.02408
       H   -17.76319   11.32590   17.69885
       O   -18.52695   10.79837   17.41510
      H1   -19.39629   11.03075   17.80912
       H   -14.25768   14.24918   17.97397
       O   -15.19093   14.35587   18.15043
      H1   -15.66993   14.44668   17.29881

