45
frame 1 | Written by MDAnalysis XYZWriter (release 2.4.3)
       H   -11.17708   11.24616  -14.31750
       O   -12.02161   11.56996  -14.66063
      H1   -12.38280   12.11080  -13.93580
       H   -13.98098   13.36259  -13.48998
       O   -13.90215   12.65773  -12.84994
      H1   -14.54122   12.01123  -13.11587
       H    -8.19682   11.55733  -17.08695
       O    -8.91108   11.77903  -16.51861
      H1    -9.70885   11.46186  -16.92972
       H   -10.91125   15.77435  -13.78703
       O   -11.46686   15.42809  -14.50085
      H1   -10.84086   15.00265  -15.05876
       H   -10.80179   17.50142  -13.22702
       O   -10.43358   17.06164  -12.47501
      H1    -9.50489   17.28374  -12.47609
       H   -13.38988   15.14030  -14.76253
       O   -14.28502   14.87463  -14.60514
      H1   -14.62560   14.71656  -15.51305
       H    -6.92984   16.72396  -13.04905
       O    -7.86022   16.55266  -13.23087
      H1    -8.03535   16.75231  -14.20382
       H    -7.72396   17.50475  -16.26207
       O    -8.51882   17.05281  -15.88067
      H1    -9.07939   17.74012  -15.41723
       H   -12.36719   17.18187  -17.83765
       O   -11.81020   17.16089  -17.05844
      H1   -11.62300   16.23535  -16.95798
       H    -9.08547   15.13762  -16.54861
       O    -9.64893   14.44342  -16.79333
      H1    -9.24519   13.63699  -16.46883
       H    -9.30620   16.92096  -17.93831
       O    -9.35454   16.79607  -18.91223
      H1    -9.50212   17.52237  -19.44459
       H    -7.41843   13.21374  -13.58018
       O    -8.07330   13.89327  -13.83184
      H1    -7.82973   14.75801  -13.43573
       H   -12.33358   18.03481  -15.55583
       O   -12.26853   18.37639  -14.66861
      H1   -13.18882   18.53872  -14.41186
       H   -10.73924   18.96615  -14.56638
       O    -9.78407   19.17175  -14.62591
      H1    -9.67924   20.05102  -14.21753
       H    -9.44027   13.29861  -12.65511
       O    -9.93440   13.26974  -11.83415
      H1   -10.24892   14.13288  -11.61342

