45
frame 1 | Written by MDAnalysis XYZWriter (release 2.4.3)
       H    15.65364    5.20430   18.00720
       O    15.40110    4.81617   17.19349
      H1    14.86725    5.44517   16.76629
       H    14.03985    3.71252   18.17696
       O    13.42221    2.98129   18.19108
      H1    13.56339    2.58451   17.33714
       H    15.91557    0.78907   17.37225
       O    16.48517    0.76931   16.58150
      H1    16.56824   -0.13838   16.25624
       H    19.22848    7.86275   18.12674
       O    18.27327    7.61942   18.06648
      H1    17.82717    8.16011   17.41777
       H    14.97284    8.27439   18.95126
       O    14.65102    7.40853   19.07036
      H1    15.48217    6.95330   19.30724
       H    14.11043    1.49065   18.87339
       O    14.83591    0.84540   18.99512
      H1    14.60926    0.02137   19.34597
       H    17.25994    4.87265   20.15343
       O    16.97773    5.30912   19.32914
      H1    17.57985    6.02479   18.96222
       H    18.36520    0.28642   17.71941
       O    19.19419    0.06778   18.20057
      H1    19.73120    0.87310   18.30453
       H    17.28017   10.24576   17.05312
       O    16.62573    9.60602   16.69662
      H1    16.60556    9.79259   15.77216
       H    15.10262    1.58499   15.77160
       O    14.26566    2.03702   15.58173
      H1    13.68193    1.36859   15.23773
       H    18.65134    4.74661   16.40303
       O    19.31554    5.43368   16.70667
      H1    18.85814    6.16389   17.20188
       H    17.40497    3.70559   14.79530
       O    17.68285    3.55640   15.69726
      H1    16.82374    3.70466   16.14973
       H    18.95170    4.30989   19.56884
       O    19.79893    4.54812   19.21996
      H1    19.64070    4.82003   18.31023
       H    14.84223    7.10018   15.17744
       O    14.06990    6.81944   15.62613
      H1    13.72386    7.42629   16.25155
       H    15.65975   10.03036   18.34724
       O    14.88119   10.40922   18.82821
      H1    15.17227   10.48346   19.72623

