45
frame 1 | Written by MDAnalysis XYZWriter (release 2.4.3)
       H    17.02524   -1.55193   12.02011
       O    16.61501   -1.94140   12.84554
      H1    15.88868   -1.35138   13.12926
       H    16.37897   -2.96396   17.16204
       O    16.02428   -2.15718   16.71880
      H1    15.23176   -2.50122   16.28915
       H    19.47651   -1.64654   18.33216
       O    19.44069   -2.60896   18.48524
      H1    19.80680   -3.00758   17.67459
       H    14.97781   -8.88571   16.38547
       O    14.66696   -8.69997   15.51361
      H1    13.85994   -9.28646   15.45052
       H    15.43935   -7.75468   14.17442
       O    15.44420   -7.29074   13.32886
      H1    15.50319   -6.38324   13.59641
       H    13.04160   -4.96844   17.44298
       O    13.90261   -4.58778   17.40254
      H1    13.82909   -3.84776   16.77442
       H    17.11186   -4.51901   17.84395
       O    16.46130   -4.41926   18.51855
      H1    15.67428   -4.84113   18.17380
       H    17.90676   -8.97198   14.25366
       O    17.76470   -9.86261   13.81274
      H1    17.01230   -9.74610   13.27349
       H    17.65761   -5.40307   15.76654
       O    17.46341   -4.47418   15.93385
      H1    18.33009   -4.03534   15.93914
       H    18.18295   -7.78001   10.63863
       O    17.90855   -6.93235   11.01710
      H1    17.29479   -7.22619   11.68877
       H    19.10254   -6.92933   15.32018
       O    18.33879   -7.55813   15.49550
      H1    18.48527   -7.91233   16.38178
       H    19.15901   -0.63227   14.50643
       O    19.00157   -1.48163   14.07062
      H1    18.03359   -1.48689   13.74186
       H    15.47218   -2.84177   19.47611
       O    14.86826   -2.17008   19.27654
      H1    15.24822   -1.80330   18.46449
       H    16.65471   -4.53668   14.44323
       O    16.36432   -4.81492   13.56066
      H1    16.45003   -3.96100   13.12206
       H    19.07103   -7.26125   18.26591
       O    19.06849   -6.32919   18.47532
      H1    18.34108   -6.37170   19.16208

