45
frame 1 | Written by MDAnalysis XYZWriter (release 2.4.3)
       H    -5.12902    4.58484   18.15023
       O    -4.13963    4.58179   18.08254
      H1    -4.02431    5.21457   17.33385
       H    -3.05326   13.02266   19.34199
       O    -2.09510   12.77608   19.30542
      H1    -1.92837   11.80495   19.30200
       H    -7.17880    8.99234   18.39885
       O    -7.19964    9.96186   18.45811
      H1    -7.31555   10.14693   19.36369
       H    -7.22972    7.22260   15.46936
       O    -6.41816    7.03096   14.95225
      H1    -5.66715    7.01225   15.54889
       H    -7.75679    7.24528   17.45066
       O    -7.13138    7.12207   18.17641
      H1    -7.18846    6.17370   18.32833
       H     0.28928    7.10036   18.81327
       O     0.89568    7.16875   18.04394
      H1     1.16757    8.09493   17.95406
       H    -3.30708    5.86988   15.63325
       O    -3.89241    6.31830   16.22368
      H1    -3.56672    7.16690   16.46023
       H    -2.47271    3.45152   18.42853
       O    -1.73000    2.84936   18.67230
      H1    -1.13565    3.33274   19.23829
       H    -0.24298   10.25191   19.26443
       O    -1.20652   10.25441   19.05621
      H1    -1.33465    9.62864   18.29601
       H    -2.53404   12.51143   15.64807
       O    -2.82031   11.62979   15.75259
      H1    -3.69480   11.69670   16.18584
       H    -7.27290    3.39403   18.68126
       O    -6.91887    4.23718   18.28501
      H1    -6.95465    4.08334   17.32450
       H    -5.79312   10.71364   17.56440
       O    -5.12106   11.26763   17.24794
      H1    -5.46569   12.16685   17.19564
       H    -3.86320    9.81083   17.49175
       O    -3.47515    8.89641   17.49083
      H1    -2.77537    9.03092   16.83491
       H    -3.85549    7.59021   18.88668
       O    -3.81481    7.31420   19.83445
      H1    -4.46786    7.95211   20.18826
       H    -5.02244   14.16162   19.15172
       O    -4.73053   13.39373   19.60745
      H1    -5.53020   12.90529   19.85707

