45
frame 0 | Written by MDAnalysis XYZWriter (release 2.4.3)
       H    17.05871  -10.89082   -4.45374
       O    16.69418  -11.13986   -5.30405
      H1    16.06413  -10.42417   -5.46965
       H    18.99327   -9.13013   -8.82051
       O    18.18112   -9.44669   -8.41009
      H1    17.78514   -8.76245   -7.81428
       H    10.83288   -6.09510   -9.56802
       O    11.71462   -6.42003   -9.31604
      H1    11.67403   -7.11121   -8.62826
       H    13.59911   -4.74653   -4.27605
       O    14.02361   -4.07891   -3.70388
      H1    14.89777   -4.45728   -3.46419
       H    10.04795  -10.56172   -7.54372
       O    10.62511   -9.78135   -7.49018
      H1    11.42834   -9.92666   -8.00907
       H    12.46481   -8.44326   -2.28945
       O    11.92811   -8.94428   -2.95427
      H1    11.95430   -9.86694   -2.74773
       H    12.27238  -10.03876   -6.03303
       O    12.98552  -10.15759   -5.37848
      H1    12.82779   -9.60710   -4.59702
       H    13.56973   -9.46219   -9.22252
       O    13.09262   -9.01739   -8.48372
      H1    13.82465   -8.69921   -7.88402
       H    15.56395   -6.51611   -8.78340
       O    15.38361   -5.77558   -8.20674
      H1    15.19569   -5.05755   -8.80215
       H    13.77837   -8.89128   -5.98910
       O    14.45464   -8.23692   -6.30112
      H1    14.16316   -7.33172   -6.05476
       H    17.10634   -5.03697   -7.54395
       O    18.07142   -4.81724   -7.64222
      H1    18.58490   -5.14107   -6.86195
       H    14.56889   -3.27694   -5.63699
       O    14.68094   -2.77259   -6.42001
      H1    13.76424   -2.53464   -6.61119
       H    16.46708   -7.68457   -6.46959
       O    17.40026   -7.69770   -6.36220
      H1    17.63735   -7.72773   -5.40660
       H    10.31904   -7.77991   -6.23674
       O    10.25616   -6.83932   -6.32086
      H1    10.18809   -6.47575   -5.47015
       H    13.85316   -5.51686   -6.65042
       O    13.24999   -5.70028   -5.94899
      H1    12.38208   -5.85590   -6.34440

