45
frame 1 | Written by MDAnalysis XYZWriter (release 2.4.3)
       H    -6.73384   13.95164  -15.41081
       O    -6.59848   13.90429  -16.38411
      H1    -5.68956   14.20592  -16.53023
       H    -2.72170   18.07396  -13.34424
       O    -2.71166   18.98948  -13.66614
      H1    -2.16904   19.04032  -14.49937
       H    -5.87575   18.96410  -15.84903
       O    -5.88728   19.49818  -14.99301
      H1    -5.56602   18.98454  -14.25340
       H    -3.78431   15.86537  -17.88874
       O    -3.89050   14.95136  -17.51700
      H1    -4.29910   14.51614  -18.30710
       H    -0.83316   18.68493  -15.63315
       O    -1.55932   18.20707  -16.05242
      H1    -1.42744   17.23731  -15.83941
       H    -6.06568   17.48115  -17.81409
       O    -6.42095   18.18410  -17.27488
      H1    -6.69030   18.89501  -17.88947
       H    -6.92984   16.72396  -13.04905
       O    -7.86022   16.55266  -13.23087
      H1    -8.03535   16.75231  -14.20382
       H    -7.72396   17.50475  -16.26207
       O    -8.51882   17.05281  -15.88067
      H1    -9.07939   17.74012  -15.41723
       H    -1.57332   13.03252  -18.18889
       O    -1.53222   12.89865  -17.22630
      H1    -1.81021   13.74824  -16.78399
       H    -9.30620   16.92096  -17.93831
       O    -9.35454   16.79607  -18.91223
      H1    -9.50212   17.52237  -19.44459
       H    -3.36700   18.38448  -18.34729
       O    -3.55541   17.65656  -19.01741
      H1    -2.68881   17.22860  -19.24650
       H     1.72283   18.65080  -16.89048
       O     2.43783   18.98712  -16.32034
      H1     3.01110   19.20876  -17.11094
       H    -2.62456   15.29848  -15.98058
       O    -1.81969   15.08292  -15.51420
      H1    -2.11306   15.17553  -14.62389
       H     0.09868   17.70565  -18.90877
       O    -0.00268   18.38396  -18.20662
      H1    -0.75776   18.19868  -17.64333
       H    -2.20315   16.42437  -11.93000
       O    -2.69498   16.20449  -12.71058
      H1    -3.57611   16.34883  -12.37787

