45
frame 1 | Written by MDAnalysis XYZWriter (release 2.4.3)
       H   -13.28639  -18.16966  -15.90771
       O   -12.80119  -18.30899  -16.71018
      H1   -12.50511  -19.19975  -16.69494
       H   -17.87250  -15.35268  -10.00723
       O   -18.59425  -15.12844  -10.61880
      H1   -18.12349  -14.93501  -11.45536
       H   -14.54723  -15.37337  -17.72583
       O   -14.64252  -15.91154  -18.52546
      H1   -13.77300  -16.24110  -18.67439
       H   -11.83040  -16.07072  -13.19200
       O   -10.90343  -15.81045  -13.43364
      H1   -10.95530  -15.51859  -14.33847
       H   -16.44061  -12.19629  -16.49104
       O   -16.86785  -13.06593  -16.14832
      H1   -17.16071  -12.78368  -15.27687
       H   -15.08587  -18.19842  -15.05406
       O   -14.37834  -18.26093  -14.38722
      H1   -14.51611  -19.15740  -14.07536
       H   -11.33457  -16.65151  -19.24092
       O   -12.23961  -17.02068  -19.09475
      H1   -12.17960  -17.25689  -18.15774
       H   -16.56471  -18.37923  -18.01167
       O   -17.02346  -18.61522  -18.83787
      H1   -17.17195  -17.76281  -19.36456
       H   -16.18123  -14.34273  -13.01123
       O   -17.12466  -14.66811  -12.99183
      H1   -17.27677  -15.20374  -13.77299
       H   -13.72210  -13.85361  -16.33935
       O   -14.46623  -14.47383  -16.03907
      H1   -15.25363  -13.93724  -16.12230
       H   -16.49510  -17.17051  -16.05153
       O   -15.73102  -17.58699  -16.48598
      H1   -15.24002  -16.91882  -16.97419
       H   -13.77945  -13.22085  -12.85368
       O   -14.32027  -13.94913  -13.25238
      H1   -14.21836  -13.93773  -14.22277
       H   -18.24335  -17.41537  -14.67686
       O   -17.73829  -16.60181  -15.04058
      H1   -18.36905  -16.24637  -15.67214
       H   -18.93609  -19.31859  -14.63374
       O   -19.21679  -18.63445  -14.05564
      H1   -19.39617  -19.02392  -13.20784
       H   -13.98880  -17.31233  -13.12589
       O   -13.55538  -16.77815  -12.40141
      H1   -13.99418  -15.94177  -12.54243

