45
frame 1 | Written by MDAnalysis XYZWriter (release 2.4.3)
       H    17.90686   -9.35618  -10.01333
       O    17.33807   -9.45286   -9.24603
      H1    17.76670   -8.79609   -8.65653
       H    17.61649  -11.89281  -16.79059
       O    18.58355  -12.04229  -16.59976
      H1    18.64289  -11.26560  -16.03101
       H    16.50119   -7.74753  -18.20588
       O    17.27081   -7.64656  -18.77388
      H1    17.99563   -7.26546  -18.12375
       H    18.77010  -13.18744  -15.27579
       O    18.95412  -13.80547  -14.53487
      H1    19.78881  -13.48443  -14.14093
       H    15.14313  -11.24158  -17.77442
       O    16.12865  -11.37256  -17.68776
      H1    16.61548  -10.99848  -18.41854
       H    18.72009   -9.25652  -14.57733
       O    19.04618   -9.54571  -15.46288
      H1    18.84389   -8.78800  -16.06074
       H    17.78295   -9.43661  -19.31142
       O    17.81528  -10.38675  -19.59248
      H1    18.70085  -10.70230  -19.38459
       H    15.50251   -8.34989  -15.19156
       O    15.35608   -9.00048  -14.43508
      H1    15.02216   -9.80617  -14.87582
       H    13.27587  -11.15268  -15.09115
       O    14.22980  -11.31072  -14.92736
      H1    14.40679  -12.23754  -15.07326
       H    19.32034  -10.01305  -12.97252
       O    18.81751   -9.25296  -12.75207
      H1    17.89816   -9.62024  -12.63802
       H    14.60313   -7.98387  -16.90153
       O    15.38538   -7.53869  -16.73246
      H1    15.16598   -6.59965  -16.88197
       H    17.32050   -4.77294  -16.59810
       O    16.36555   -4.90540  -16.38165
      H1    16.33661   -5.09667  -15.44333
       H    17.45434  -13.14279  -11.80489
       O    17.00971  -12.87892  -12.60683
      H1    17.55520  -13.26778  -13.30287
       H    16.48972  -11.18690  -12.10605
       O    16.25613  -10.23895  -12.04708
      H1    15.75704  -10.07161  -12.83504
       H    19.82836   -6.18296  -16.76280
       O    19.35475   -7.01901  -17.00098
      H1    20.01978   -7.42082  -17.59231

