45
frame 0 | Written by MDAnalysis XYZWriter (release 2.4.3)
       H     9.75804   15.78397    2.23196
       O     8.91737   16.15095    2.12646
      H1     8.21543   15.45651    2.34494
       H     6.40597   13.45116   -1.35635
       O     5.75631   13.52971   -2.06527
      H1     6.22002   13.13731   -2.85474
       H     6.51076   12.71462   -5.23588
       O     7.07034   12.77121   -4.47043
      H1     7.35784   11.85542   -4.28106
       H     7.13919    9.58215   -4.64097
       O     6.91250   10.20297   -3.93355
      H1     6.04268   10.59515   -4.22263
       H     8.22900   10.52280   -1.23848
       O     7.25136   10.70109   -1.15592
      H1     6.92202   10.45207   -2.00130
       H     7.09706   17.30181   -3.31655
       O     7.82904   17.85364   -2.91090
      H1     8.47295   17.82703   -3.59897
       H     3.39923   13.73826    1.14044
       O     2.74962   14.41775    0.87322
      H1     3.21843   15.23129    1.18181
       H     8.87367   16.76207   -1.06693
       O     9.80176   16.77760   -0.74350
      H1     9.71784   16.61563    0.24232
       H     8.72415   13.02929   -5.01371
       O     9.60964   12.85765   -5.41731
      H1    10.20466   13.22994   -4.73961
       H     4.62240   16.92674   -2.73665
       O     5.11724   16.27422   -3.27360
      H1     4.92421   15.47820   -2.80222
       H     6.21067   14.98882    2.45377
       O     6.98999   14.35434    2.49936
      H1     7.14072   13.85613    1.61856
       H    10.81475   13.61577   -0.01070
       O    10.26950   13.92220   -0.80796
      H1    10.37621   14.89153   -0.79024
       H     7.28711   12.29014   -0.14442
       O     7.60973   13.12921    0.22305
      H1     8.45172   13.31655   -0.10140
       H     2.76886   14.21908   -1.14369
       O     2.86813   13.49503   -1.77371
      H1     3.81292   13.46622   -1.90124
       H     4.30111   11.64045    0.90781
       O     4.03483   12.08421    1.75767
      H1     3.11115   11.81332    1.96371

