45
frame 2 | Written by MDAnalysis XYZWriter (release 2.4.3)
       H    -4.77562    4.68867    9.49634
       O    -4.76922    4.82710   10.49559
      H1    -4.62953    3.93180   10.81390
       H    -7.65213    3.22041    7.49021
       O    -7.21155    3.93024    7.02332
      H1    -7.12793    3.61988    6.14429
       H    -1.56313    5.21139   10.19451
       O    -1.87989    4.28937   10.19377
      H1    -2.84766    4.54916   10.40720
       H    -4.57911    0.57739    7.02171
       O    -4.67122   -0.36811    7.19317
      H1    -5.58416   -0.46363    6.94089
       H    -7.99248    3.02567    9.45664
       O    -7.86518    2.07743    9.20305
      H1    -6.95424    1.87404    9.16442
       H    -2.07682    7.01491    8.59364
       O    -2.23814    7.03682    7.64068
      H1    -1.46542    6.61628    7.24751
       H    -7.68467    5.75339    7.24002
       O    -7.65028    6.69538    7.18434
      H1    -8.43520    7.01864    7.66800
       H    -5.31135    4.27830    7.24439
       O    -4.54560    4.27323    7.81209
      H1    -3.75052    4.21098    7.33267
       H    -4.58000    2.82454    6.68064
       O    -5.02640    2.35925    5.93987
      H1    -4.55960    2.77480    5.18661
       H    -1.53529    4.14973    7.92786
       O    -1.61255    3.87741    6.97936
      H1    -1.13510    4.67171    6.58908
       H    -8.72564    4.61405   10.74278
       O    -8.52884    4.62710    9.77436
      H1    -7.73855    5.19901    9.80768
       H    -1.13142    1.90377    6.82121
       O    -0.97706    0.96394    6.91232
      H1    -0.63576    0.76205    5.99894
       H    -4.74127    4.37846    3.89825
       O    -3.99813    3.81609    4.09369
      H1    -3.99163    3.05145    3.47727
       H    -4.81417    0.63203    8.79946
       O    -5.19335    1.41133    9.25257
      H1    -4.81533    1.57103   10.18873
       H    -5.47740    6.93627    6.99673
       O    -4.82828    7.62168    6.92184
      H1    -3.94571    7.25364    6.99990

