45
frame 2 | Written by MDAnalysis XYZWriter (release 2.4.3)
       H     6.95665   -6.08392  -14.42445
       O     7.09238   -6.66754  -13.64538
      H1     7.82234   -6.25762  -13.15949
       H    10.21491   -8.65604  -10.71000
       O     9.43449   -8.16159  -10.51501
      H1     9.31574   -7.61751  -11.30469
       H    10.73308   -5.90542  -10.49807
       O    11.38668   -6.07494   -9.84617
      H1    11.38175   -7.02476   -9.61659
       H     5.67726   -4.96220  -10.61742
       O     4.73324   -5.16477  -10.47558
      H1     4.43454   -4.54851   -9.82150
       H     5.49955   -1.00204  -10.33597
       O     6.12232   -0.77976  -11.05434
      H1     5.60678   -0.27438  -11.71231
       H    10.45142   -3.10649  -11.94778
       O    10.55094   -3.41814  -12.83595
      H1    10.20599   -2.71381  -13.37725
       H     4.14133   -3.01421  -13.84904
       O     4.93060   -3.07565  -14.37704
      H1     5.24232   -2.26333  -14.75647
       H     7.39408   -4.02498   -9.56520
       O     7.38719   -4.49529  -10.39825
      H1     7.34039   -3.83415  -11.11340
       H    10.56352   -4.93115   -8.60453
       O    10.04517   -4.33305   -7.96205
      H1     9.22788   -4.80750   -7.78850
       H    10.11988   -2.13509   -9.83439
       O    10.75436   -2.07164  -10.53488
      H1    10.69339   -1.14454  -10.86922
       H     8.12582   -1.25932  -13.28234
       O     8.46882   -0.37160  -13.45906
      H1     9.30427   -0.33244  -13.03909
       H     8.50021   -1.35422   -7.36325
       O     8.65766   -1.85678   -8.16636
      H1     9.08061   -2.70270   -7.90625
       H     6.85680   -1.93448  -12.00076
       O     7.15084   -2.75035  -12.53734
      H1     6.35363   -3.03066  -13.10380
       H     9.72326   -5.00652  -12.30339
       O     9.09197   -5.77912  -12.02252
      H1     8.63736   -5.27852  -11.29716
       H     4.58536   -6.84462  -10.88362
       O     4.36773   -7.79319  -10.78006
      H1     4.92742   -8.30582  -11.45180

