45
frame 0 | Written by MDAnalysis XYZWriter (release 2.4.3)
       H    -1.39146  -11.12561  -17.95573
       O    -0.77676  -11.82956  -17.69414
      H1    -0.92996  -12.42997  -18.48413
       H     3.36463   -5.49331  -18.55846
       O     3.70787   -6.15764  -19.15086
      H1     3.60298   -5.65958  -19.95940
       H     5.57283   -5.79211  -18.57227
       O     6.39857   -5.77481  -18.06916
      H1     7.05590   -5.29781  -18.56623
       H     0.50042  -11.02421  -18.38263
       O     1.21653  -10.58418  -18.86710
      H1     1.87781  -10.37822  -18.17619
       H    -3.27266   -5.90085  -17.31334
       O    -4.02874   -5.36850  -17.18957
      H1    -3.75525   -4.57462  -16.68356
       H    -2.92042  -10.47345  -19.31237
       O    -2.59731   -9.94882  -18.52137
      H1    -3.41615  -10.03836  -17.99609
       H    -0.62043   -9.62029  -15.14716
       O    -0.92671   -9.05548  -14.42883
      H1    -0.29792   -9.41342  -13.77823
       H     4.95326   -8.89556  -17.64937
       O     5.86314   -8.57314  -17.73840
      H1     5.78341   -7.65111  -17.76304
       H     2.55640   -8.78901  -16.82357
       O     3.17018   -9.52081  -17.06983
      H1     3.57379   -9.69623  -16.27632
       H     2.38136   -6.93145  -15.82111
       O     1.66295   -7.50163  -16.04595
      H1     1.15902   -6.97869  -16.68007
       H     0.77451   -7.13948  -19.18642
       O     0.44067   -6.31099  -18.82119
      H1     1.01597   -5.66249  -19.24372
       H    -0.36533   -3.66249  -17.13467
       O    -0.87849   -4.44770  -17.40191
      H1    -0.23342   -5.08143  -17.76511
       H     2.42453   -3.14012  -18.43388
       O     3.23834   -3.64472  -18.16696
      H1     3.55633   -3.10921  -17.40595
       H    -2.28825   -8.11989  -17.86195
       O    -1.91282   -7.28884  -17.62133
      H1    -1.34197   -7.03438  -18.34961
       H    -1.39624   -6.53459  -15.17942
       O    -1.13759   -5.64999  -14.83599
      H1    -1.06684   -5.12192  -15.62135

