45
frame 2 | Written by MDAnalysis XYZWriter (release 2.4.3)
       H    14.38459   15.98300    7.28566
       O    14.35215   15.51439    8.16832
      H1    15.29378   15.39916    8.50101
       H    10.21076   16.33985   10.15972
       O    11.00924   16.17836    9.58475
      H1    11.75590   16.28068   10.21333
       H    16.73171   14.27785    8.77813
       O    16.79159   15.18353    9.08220
      H1    16.86604   15.09205   10.05959
       H    13.31646   17.33330    6.06881
       O    14.30902   17.20088    5.94063
      H1    14.76680   17.94087    5.65373
       H    15.08143   20.05099   10.99218
       O    15.75179   19.42746   10.52645
      H1    15.03732   18.80113   10.27213
       H    16.99646   11.88704    7.95463
       O    16.63472   12.46106    7.22036
      H1    17.09323   12.23995    6.41816
       H    13.47393   13.73232    6.01864
       O    12.59815   14.04741    6.24869
      H1    12.59816   14.39488    7.16230
       H    14.87520   11.68763    7.25561
       O    14.13865   11.13806    7.41432
      H1    14.17284   10.54196    6.67148
       H    19.46245   13.82063    8.93821
       O    19.63117   13.88793    7.97026
      H1    18.97798   14.39032    7.52118
       H    15.31859   15.83286   12.16291
       O    14.38501   15.68496   12.41940
      H1    14.34164   14.75057   12.42233
       H    18.32061   16.48302    8.65673
       O    19.11716   16.93897    8.53321
      H1    18.86596   17.57124    7.86311
       H    13.79748   16.89113   11.25383
       O    13.57463   17.31515   10.36563
      H1    13.83772   16.72344    9.63474
       H    19.85491   15.87431    5.25495
       O    19.07114   15.74705    5.85790
      H1    19.30091   16.22877    6.65389
       H    15.61304   14.71455    5.10026
       O    15.31147   13.79551    5.38477
      H1    15.85848   13.53133    6.13000
       H    17.20065   16.40275   11.67802
       O    17.14842   15.47566   11.64448
      H1    17.61447   15.15220   12.51390

