45
frame 3 | Written by MDAnalysis XYZWriter (release 2.4.3)
       H    17.11740  -12.58671   -5.58742
       O    16.29004  -12.27526   -5.97171
      H1    16.40240  -11.31642   -6.14375
       H    18.62567   -8.94317   -8.29181
       O    18.21001   -9.75293   -7.99928
      H1    17.76235   -9.47394   -7.15780
       H    13.54824   -4.72234   -4.15316
       O    14.25373   -5.38802   -4.12345
      H1    13.99528   -6.17537   -4.66487
       H    15.64634  -11.76733   -4.11126
       O    15.45636  -11.59441   -3.18046
      H1    15.25073  -10.68198   -3.00510
       H    18.07518   -5.61510   -2.86524
       O    18.26628   -5.53164   -3.82717
      H1    17.55329   -4.89483   -4.08566
       H    13.93950   -9.19839   -1.64842
       O    14.50037   -8.99218   -2.42424
      H1    15.14165   -8.32575   -2.23033
       H    12.07504   -8.40913   -4.88361
       O    12.60129   -7.82420   -4.30102
      H1    13.07009   -8.40776   -3.68890
       H    13.56553   -7.55358   -5.94061
       O    14.22304   -7.58050   -6.65896
      H1    14.43862   -6.66499   -6.97161
       H    17.70558   -6.95144   -6.80916
       O    18.37814   -6.42465   -7.22901
      H1    18.90744   -6.06824   -6.51373
       H    18.76241   -8.97280   -3.26225
       O    18.43394   -8.36579   -3.91312
      H1    18.31441   -7.54887   -3.38207
       H    19.44225  -13.16521   -4.71461
       O    18.64874  -12.74893   -4.23223
      H1    18.49354  -13.39137   -3.55218
       H    18.94850  -11.67837   -7.28550
       O    19.55004  -12.42527   -7.65252
      H1    19.44310  -13.24994   -7.15446
       H    16.38019  -10.07393   -9.06126
       O    15.53414  -10.00115   -9.47017
      H1    15.67634   -9.94027  -10.42165
       H    15.70961   -8.67376   -6.29493
       O    16.48330   -9.22021   -6.13221
      H1    16.75422   -8.94358   -5.24122
       H    18.92356  -11.35689   -2.77464
       O    19.15697  -10.58358   -2.30956
      H1    19.12812  -10.80330   -1.37622

