45
frame 4 | Written by MDAnalysis XYZWriter (release 2.4.3)
       H    16.67277    5.82897   11.38251
       O    15.99477    6.51973   11.06158
      H1    15.10800    6.31901   11.44305
       H    18.52131    4.31599   10.61446
       O    18.33860    4.98793   11.35096
      H1    18.37290    4.37194   12.12588
       H    13.77499    3.13010    8.85334
       O    14.38608    3.82771    8.50408
      H1    13.94119    4.66255    8.65417
       H    18.46404    2.14173   13.72792
       O    18.87137    2.43353   12.90587
      H1    19.60189    2.97249   13.18160
       H    19.01959    7.00133    8.35973
       O    18.89807    6.15556    7.75943
      H1    18.61458    5.31401    8.17453
       H    15.41212   10.25858    9.35069
       O    15.45758    9.91851   10.23914
      H1    15.50105    8.98110   10.10135
       H    14.83649    3.38657   13.22749
       O    14.03413    3.66834   13.70161
      H1    14.22481    3.77351   14.64422
       H    18.54083    2.47868    9.66010
       O    18.58848    3.25625    9.10214
      H1    17.80042    3.31890    8.51040
       H    18.13769    8.78455   14.18881
       O    18.95390    8.88831   13.62918
      H1    19.68500    8.91260   14.21803
       H    15.35795    3.26514   10.75112
       O    15.58286    2.80942   11.56626
      H1    15.62214    1.92193   11.28110
       H    19.08638    6.49690   11.64700
       O    19.61456    7.29205   11.72323
      H1    19.36201    7.70046   12.53819
       H    13.08624    6.75101   12.99029
       O    13.56026    6.09807   12.50651
      H1    13.56773    5.34174   13.09198
       H    18.11792    5.71246   15.93755
       O    18.73973    6.40544   15.54724
      H1    18.51840    7.26836   16.03541
       H    15.64892    8.90693   14.14432
       O    16.41457    8.31611   14.34031
      H1    16.42489    7.64222   13.62338
       H    13.89384    6.69990    8.90347
       O    14.80160    6.95021    8.63271
      H1    15.32612    6.42473    9.26458

