45
frame 4 | Written by MDAnalysis XYZWriter (release 2.4.3)
       H   -11.37717  -14.38339   14.35960
       O   -11.62698  -15.30521   14.08243
      H1   -12.53653  -15.22719   13.70097
       H   -11.02651   -9.85321   17.46799
       O   -11.68936  -10.31193   17.93156
      H1   -12.25472   -9.59741   18.24825
       H   -13.54314  -11.27689   15.47123
       O   -12.94588  -11.74715   16.09038
      H1   -12.48445  -11.20031   16.72488
       H   -12.02139  -14.39088   18.40302
       O   -11.53808  -13.59801   18.20708
      H1   -11.79011  -12.98819   18.87526
       H   -14.14392  -12.80286   16.97990
       O   -14.85882  -13.26800   17.49551
      H1   -14.92463  -14.03025   16.88547
       H   -11.44379  -12.29541   14.99886
       O   -10.71913  -12.80061   14.67742
      H1   -10.62662  -12.55444   13.78612
       H   -12.27514  -16.25606   18.22601
       O   -12.53378  -15.86101   19.07410
      H1   -11.72070  -15.99018   19.60834
       H   -14.34487  -14.89149   12.45555
       O   -14.14957  -14.37910   13.23936
      H1   -14.66038  -14.72549   14.00117
       H    -9.54084  -12.70021   16.02415
       O    -9.15715  -13.07123   16.84409
      H1    -9.96097  -13.29565   17.29074
       H   -11.83215  -16.03865   15.62168
       O   -11.87205  -16.45577   16.48985
      H1   -10.94043  -16.91726   16.58946
       H   -16.28767  -10.56865   17.84787
       O   -16.15897  -10.22677   18.77225
      H1   -16.08077   -9.22090   18.72809
       H   -17.00850  -15.38826   18.71803
       O   -17.29490  -16.31385   18.45788
      H1   -18.24490  -16.30699   18.21249
       H   -16.30837  -12.60285   16.48316
       O   -16.97635  -11.93520   16.24916
      H1   -17.21526  -12.21153   15.35413
       H   -16.71024  -14.98263   15.40965
       O   -15.75931  -15.11678   15.35193
      H1   -15.57719  -16.03750   15.55177
       H   -14.91719  -10.79784   13.83690
       O   -14.61180  -10.20034   14.56359
      H1   -13.99065   -9.52514   14.32098

