45
frame 4 | Written by MDAnalysis XYZWriter (release 2.4.3)
       H     0.97534   15.64133  -19.78237
       O     0.95697   15.59879  -18.81171
      H1     0.33598   14.86204  -18.66714
       H     2.90124    5.43468  -19.93451
       O     2.16842    5.47187  -19.29501
      H1     2.05940    6.34426  -18.93998
       H     0.80707    9.47967  -18.73841
       O     0.20144   10.16763  -19.02638
      H1     0.19724   10.24486  -19.99517
       H     3.40805   13.55952  -18.61393
       O     4.10633   14.22857  -18.53658
      H1     3.89019   14.88231  -19.20982
       H     2.56138    7.99562  -17.42405
       O     1.65510    7.76591  -17.77756
      H1     1.04250    7.75085  -17.07217
       H    -1.60363   13.45345  -18.48121
       O    -0.67921   13.64545  -18.21553
      H1    -0.84050   13.89019  -17.26455
       H    -1.42049    7.58541  -16.04173
       O    -0.90974    8.32567  -15.75178
      H1    -0.50094    8.11329  -14.89622
       H     0.63773    9.82790  -14.82999
       O     1.49823    9.48143  -14.71632
      H1     1.48710    9.43044  -13.72984
       H     2.20775   12.43342  -16.35324
       O     2.35275   12.51142  -15.41656
      H1     3.04647   11.85623  -15.32882
       H     4.57812   11.12106  -18.55914
       O     4.48305   10.25635  -18.97185
      H1     5.30751   10.24715  -19.54807
       H    -1.62388   10.28035  -18.95456
       O    -2.53429   10.31287  -19.27874
      H1    -2.76043    9.52444  -19.71564
       H    -2.13432    5.11531  -19.22489
       O    -1.28757    5.50771  -19.03599
      H1    -0.82145    4.81803  -18.59586
       H     0.57231   12.68419  -15.35973
       O    -0.30307   12.98101  -15.11434
      H1    -0.86570   12.22099  -15.39179
       H     0.98638   12.95314  -17.99093
       O     1.82529   12.51746  -18.15523
      H1     1.59685   11.67029  -18.50688
       H    -3.40783    9.92476  -17.45933
       O    -3.75929    9.32676  -16.74832
      H1    -4.09517    9.89383  -16.03769

