45
frame 4 | Written by MDAnalysis XYZWriter (release 2.4.3)
       H     2.62114   17.74721  -10.07413
       O     3.40490   17.19014  -10.27142
      H1     3.58950   16.66638   -9.44271
       H     0.55232   16.62755  -12.76479
       O     0.64461   16.08825  -11.94275
      H1     0.41394   16.72740  -11.25689
       H     2.02410   12.19977  -13.27684
       O     1.80790   12.08789  -12.32627
      H1     0.81868   12.16554  -12.35588
       H     3.10527   15.38387  -14.77067
       O     2.47295   15.47137  -15.52792
      H1     3.03309   15.04339  -16.21566
       H    -0.85643   13.73278  -13.26923
       O    -0.97998   13.92839  -12.37459
      H1    -0.43374   14.65755  -12.12646
       H     1.19381   14.67514   -8.01848
       O     0.95892   14.39302   -8.91508
      H1     1.74861   14.55270   -9.48240
       H     5.21393   17.08733  -12.71780
       O     4.28034   17.23721  -12.73163
      H1     3.96721   17.15381  -11.79894
       H     1.45570   16.96427  -14.64647
       O     0.74035   17.62086  -14.51991
      H1     1.21978   18.37358  -14.90494
       H     3.37268   16.20619   -7.24044
       O     4.15151   15.87364   -7.70446
      H1     4.21941   14.87884   -7.47867
       H     0.33667   11.26380   -8.38324
       O    -0.31923   11.89620   -8.73984
      H1     0.15545   12.68751   -8.95422
       H     5.95863   14.85938  -10.57019
       O     5.46108   14.12880  -11.03735
      H1     4.53061   14.28146  -10.94102
       H     6.54926   11.41370  -12.55110
       O     5.61495   11.61582  -12.46547
      H1     5.60565   12.57344  -12.22444
       H     2.26817   13.74794  -11.43604
       O     2.75694   14.44392  -10.99208
      H1     2.40366   15.26244  -11.31204
       H     5.66350   12.90669   -9.85140
       O     6.10955   12.60635   -9.01575
      H1     5.77968   11.76681   -8.76692
       H    -0.26915   15.61524   -8.74698
       O    -0.81765   16.34945   -8.34973
      H1    -0.43755   17.16244   -8.72032

