45
frame 4 | Written by MDAnalysis XYZWriter (release 2.4.3)
       H   -10.91928    7.34508   -4.29154
       O    -9.98228    7.40696   -4.60589
      H1    -9.56221    7.70663   -3.82743
       H   -12.02290    8.82278   -0.84298
       O   -11.00475    8.65806   -0.80539
      H1   -10.97108    8.09875    0.03196
       H   -14.91493    6.88253   -1.67805
       O   -14.42791    7.24275   -2.48809
      H1   -14.48519    8.22996   -2.56064
       H    -8.85632   10.90788    0.02472
       O    -9.76226   11.26711    0.12574
      H1   -10.45135   10.56542    0.06469
       H    -8.01825    8.46888    0.60134
       O    -8.42475    7.61730    0.65469
      H1    -7.70168    6.94056    0.58320
       H    -8.78758   12.37195    2.71112
       O    -8.38798   11.65710    2.24547
      H1    -9.12591   11.50049    1.56496
       H   -12.85956   11.73179    1.76343
       O   -13.47068   11.03451    2.03125
      H1   -13.78799   10.53211    1.25590
       H   -10.07089   12.53888   -0.99878
       O   -10.50205   13.36811   -1.34193
      H1   -10.08035   13.58949   -2.20258
       H   -14.21966    8.68620    0.27391
       O   -14.00937    9.50773   -0.19958
      H1   -14.69665    9.75800   -0.75596
       H   -13.03772    5.49233    3.41699
       O   -12.93905    6.33874    3.00582
      H1   -12.14186    6.43173    2.36890
       H    -9.03532    9.87004    3.08166
       O    -9.57052    9.08283    3.22556
      H1    -9.02927    8.27759    3.47462
       H   -11.14603   10.62767   -5.81541
       O   -11.49693   10.21093   -5.03935
      H1   -10.70626   10.02032   -4.45448
       H   -10.99308    5.71031    0.84779
       O   -10.93589    6.62977    1.05983
      H1    -9.96804    6.74135    1.25702
       H    -8.47641    6.81089   -2.40365
       O    -8.57687    7.76579   -2.33157
      H1    -9.16133    7.93750   -1.52891
       H   -12.85356    7.65651   -5.22489
       O   -12.68142    6.87877   -4.62924
      H1   -13.27057    6.85492   -3.84898

