45
frame 3 | Written by MDAnalysis XYZWriter (release 2.4.3)
       H   -14.22267    2.10581   -5.59909
       O   -13.42593    1.67501   -5.23481
      H1   -12.86867    1.48554   -5.95055
       H   -10.42542    5.50948   -6.99642
       O   -10.44043    5.33742   -7.97475
      H1   -10.05250    4.44858   -8.14762
       H   -18.00897    3.92922  -10.27553
       O   -18.35718    3.21345  -10.77725
      H1   -18.79359    2.55286  -10.22552
       H   -15.67432    1.69160  -11.91391
       O   -15.84419    2.50862  -11.36307
      H1   -16.80887    2.63396  -11.21145
       H   -13.33559   -1.08008   -9.00642
       O   -12.42052   -1.16054   -9.19977
      H1   -12.36044   -0.55092  -10.00646
       H   -13.78514    2.90549   -9.29317
       O   -13.04861    3.51016   -9.28962
      H1   -13.44051    4.25697   -9.79128
       H   -14.29105    6.33815   -8.68434
       O   -15.18033    6.33928   -8.26179
      H1   -15.80567    5.93339   -8.88123
       H   -12.97204    5.53582   -6.75971
       O   -12.90530    4.55717   -6.74809
      H1   -12.88460    4.19084   -7.61402
       H   -11.98176    3.10384  -11.34527
       O   -11.11063    3.39969  -11.58591
      H1   -11.19774    4.37882  -11.65908
       H   -16.10691    3.24902   -6.55684
       O   -15.23344    2.86076   -6.73020
      H1   -14.63983    3.64498   -6.67049
       H   -10.21297    3.28991  -10.11379
       O    -9.77333    3.06221   -9.24099
      H1   -10.29675    2.32619   -8.89462
       H   -12.39790    7.16653   -9.68374
       O   -12.75402    6.39699   -9.25148
      H1   -12.02330    5.94330   -8.85282
       H   -15.38703    1.85681   -9.79596
       O   -14.90303    1.44389   -9.07117
      H1   -15.11878    1.96122   -8.29689
       H   -14.73705    5.54054  -11.61746
       O   -14.06420    4.82953  -11.53552
      H1   -14.59002    4.05918  -11.73876
       H   -11.86452    0.57180   -7.84957
       O   -11.37979    1.28208   -7.37663
      H1   -10.50324    0.85002   -7.22026

