45
frame 3 | Written by MDAnalysis XYZWriter (release 2.4.3)
       H    10.03994  -13.32133   -0.76075
       O     9.16086  -13.27192   -0.33216
      H1     8.72197  -12.47718   -0.63012
       H     8.82281   -9.94754    6.41819
       O     8.38503   -9.52070    5.72478
      H1     8.54578  -10.08795    4.90526
       H     6.49467  -10.48795   -0.98470
       O     7.45205  -10.65665   -1.11455
      H1     7.48536  -10.52731   -2.04737
       H     5.66621   -9.47006    2.47266
       O     5.80619  -10.41483    2.38948
      H1     6.72398  -10.58542    2.16584
       H     8.00235  -13.30242    2.71096
       O     7.18551  -13.33820    3.23158
      H1     6.65250  -13.89728    2.58459
       H     8.02061   -9.06828    1.33505
       O     8.32486  -10.00665    1.23216
      H1     8.15533  -10.26058    0.30055
       H    10.10502   -8.09142    4.42978
       O    10.66709   -7.45086    3.99494
      H1    10.85411   -7.76488    3.08169
       H     9.92344  -10.17131    2.45808
       O    10.25029  -10.41109    3.33560
      H1    11.22183  -10.18622    3.36322
       H     8.23164   -7.26193   -1.00570
       O     8.60841   -7.03027   -1.87509
      H1     8.86640   -7.94032   -2.25808
       H    12.02435   -7.66893    1.27755
       O    11.15421   -8.14175    1.39567
      H1    11.23046   -8.88786    0.77035
       H     9.19709   -6.80412    0.81177
       O     8.33510   -6.91146    1.26135
      H1     8.05210   -5.99116    1.32625
       H     9.88055  -11.95327    2.51449
       O     9.73652  -12.89591    2.27996
      H1     9.26370  -12.99805    1.44701
       H    10.98134  -11.67997   -1.32433
       O    11.10608  -11.17312   -2.12732
      H1    11.90415  -11.55381   -2.58151
       H     9.77798  -10.05696   -2.55999
       O     9.19370   -9.40584   -3.03037
      H1     9.51499   -9.38120   -3.92543
       H     5.26293  -10.43112    0.45449
       O     4.93255  -10.21147   -0.43455
      H1     4.70337  -11.08539   -0.80388

