45
frame 4 | Written by MDAnalysis XYZWriter (release 2.4.3)
       H   -11.44100   -5.76118  -10.06838
       O   -11.91398   -5.65119   -9.21824
      H1   -11.74615   -4.74002   -8.91250
       H   -14.52538   -4.95430   -3.56494
       O   -15.41198   -4.68320   -3.59388
      H1   -15.62320   -4.97464   -4.54015
       H    -9.03714   -5.98146   -4.93445
       O    -9.00903   -5.83378   -4.01217
      H1    -9.81930   -5.28529   -3.82362
       H    -7.83149   -4.13079   -4.23246
       O    -7.43135   -3.38693   -4.69750
      H1    -7.00176   -3.86656   -5.42261
       H   -14.96605   -2.75451   -4.37440
       O   -14.96365   -2.17891   -5.11398
      H1   -14.04320   -2.26096   -5.40608
       H   -12.26780   -1.32647   -4.37922
       O   -12.19455   -1.41719   -5.35202
      H1   -12.55984   -0.63732   -5.70883
       H   -15.09472   -7.88991   -4.83048
       O   -14.38880   -7.25816   -4.98258
      H1   -14.01945   -7.51756   -5.84793
       H   -12.43725   -6.78940   -7.84839
       O   -12.58765   -7.34223   -6.99714
      H1   -11.66827   -7.44680   -6.69338
       H   -10.55662   -8.87688   -5.47775
       O   -10.39335   -7.96546   -5.78081
      H1    -9.48617   -7.89459   -6.08616
       H   -11.56494   -4.26694   -3.55591
       O   -11.12828   -4.47874   -2.72655
      H1   -11.69818   -4.07484   -1.99922
       H    -8.54322   -0.81691   -6.83116
       O    -9.53422   -0.75820   -6.86234
      H1    -9.96284   -1.50413   -6.37723
       H   -11.92394   -2.21566   -8.60319
       O   -11.79513   -3.09876   -8.17956
      H1   -12.00043   -2.94938   -7.25674
       H    -8.95431   -3.35490   -6.10117
       O    -9.79047   -3.67460   -6.46501
      H1   -10.07315   -3.33679   -7.35751
       H   -13.29298   -6.55715   -3.78885
       O   -12.99944   -6.30197   -2.91930
      H1   -12.35167   -5.65390   -2.95262
       H   -12.41212   -5.46160   -5.77383
       O   -12.03402   -4.57516   -5.48187
      H1   -11.13093   -4.56685   -5.96983

