45
frame 4 | Written by MDAnalysis XYZWriter (release 2.4.3)
       H    16.48761   14.40716  -17.02828
       O    16.58722   14.44485  -16.06706
      H1    15.85216   13.77763  -15.84769
       H    16.07613   14.99660  -13.05535
       O    16.85153   15.39405  -12.56567
      H1    16.80377   14.85775  -11.78208
       H    14.11517   11.82008  -11.64800
       O    14.76207   12.41236  -12.04744
      H1    14.46969   13.29273  -11.74625
       H    16.66777   12.14488  -11.49660
       O    17.55816   11.99492  -11.82511
      H1    18.11483   12.15381  -11.03583
       H    17.61513   16.61500  -16.13859
       O    17.31059   17.33879  -16.62845
      H1    16.34886   17.24610  -16.84216
       H    17.98571   13.23318  -14.93893
       O    18.55116   13.41404  -14.17192
      H1    18.27064   12.81237  -13.45363
       H    16.47170   17.04583  -12.31577
       O    15.97742   17.86684  -12.01617
      H1    15.11012   17.56584  -11.65401
       H    18.77449   18.80576  -12.67724
       O    19.37793   18.49877  -13.44121
      H1    18.95602   17.64851  -13.71787
       H    15.52433    9.68478  -15.99850
       O    16.25422   10.32142  -15.97543
      H1    16.66786   10.38542  -16.86256
       H    15.47550   11.79871  -15.11092
       O    14.96739   12.56190  -14.88246
      H1    14.74438   12.46141  -14.00574
       H    19.12566   12.56517   -9.14938
       O    19.39410   12.38161  -10.07279
      H1    19.85154   13.21011  -10.37836
       H    15.03535   15.36180   -9.93828
       O    15.87946   14.82073   -9.85498
      H1    16.45831   15.30886   -9.23283
       H    17.77596    9.00660  -10.49050
       O    18.40933    8.31421  -10.58326
      H1    18.32137    7.89011  -11.48772
       H    20.19459   15.88406  -14.74272
       O    19.25677   15.95818  -15.06886
      H1    18.84287   15.13811  -14.77816
       H    17.75624    7.92443  -14.03998
       O    16.97337    8.52149  -13.97438
      H1    17.05626    9.29733  -14.60686

