45
frame 4 | Written by MDAnalysis XYZWriter (release 2.4.3)
       H   -14.12012  -18.27179   -8.19797
       O   -14.95450  -18.42805   -7.81508
      H1   -15.54378  -17.67664   -8.00905
       H   -17.40387  -15.80178   -7.43152
       O   -16.66721  -16.32238   -7.73525
      H1   -16.42502  -16.03159   -8.60025
       H   -17.67256  -15.22444   -4.03554
       O   -18.59984  -15.18393   -4.11454
      H1   -18.85474  -16.12306   -4.01190
       H   -18.43295  -19.27479   -7.30001
       O   -18.57028  -18.46285   -7.86494
      H1   -17.89728  -17.84517   -7.49740
       H   -19.50147  -13.37774   -1.54592
       O   -18.64994  -13.86331   -1.59475
      H1   -18.75100  -14.33321   -2.43848
       H   -19.74107  -14.99022   -7.14472
       O   -18.85227  -14.77930   -6.86450
      H1   -18.77631  -14.99868   -5.92469
       H   -12.64285  -18.78064  -10.94382
       O   -13.56333  -18.41003  -10.90576
      H1   -13.62188  -17.76744  -11.60981
       H   -19.07073  -18.75694  -10.94159
       O   -18.24201  -18.31982  -10.78349
      H1   -18.22688  -18.46068   -9.76982
       H   -18.27994  -17.61734   -0.86599
       O   -17.97029  -18.41423   -1.39452
      H1   -18.06422  -19.19856   -0.78495
       H   -19.67431  -11.62889   -7.47651
       O   -18.89513  -12.08500   -7.67270
      H1   -19.01331  -13.02369   -7.36817
       H   -15.59607  -19.26062   -4.76351
       O   -15.28983  -18.30565   -5.04462
      H1   -15.42117  -18.20019   -6.01375
       H   -15.18440  -14.93153  -10.10258
       O   -16.06303  -15.16964  -10.41927
      H1   -16.39707  -14.37563  -10.73596
       H   -15.33757  -15.83700   -3.00237
       O   -16.01249  -16.06661   -3.63815
      H1   -15.72898  -16.83332   -4.08127
       H   -12.91048  -15.29327   -9.77213
       O   -13.67594  -15.13228   -9.18368
      H1   -13.59800  -15.42465   -8.29213
       H   -14.54513  -15.87983   -5.83178
       O   -13.97539  -15.40372   -6.42397
      H1   -14.01133  -14.65395   -5.84444

