45
frame 4 | Written by MDAnalysis XYZWriter (release 2.4.3)
       H   -13.74267  -11.48108    9.96554
       O   -13.69309  -12.23104    9.37259
      H1   -13.55400  -11.84168    8.50238
       H   -17.97532  -10.21632   12.28345
       O   -17.81399  -11.15306   12.02639
      H1   -18.42229  -11.65260   12.60904
       H   -13.54314  -11.27689   15.47123
       O   -12.94588  -11.74715   16.09038
      H1   -12.48445  -11.20031   16.72488
       H   -12.28277  -10.21566   11.49087
       O   -11.47064  -10.67148   11.68399
      H1   -11.72482  -11.60015   11.96185
       H   -17.07182   -8.46588   13.85343
       O   -16.95777   -8.88882   14.69449
      H1   -16.14485   -9.39178   14.61988
       H   -17.85343  -15.52056   11.62701
       O   -17.13892  -15.10734   12.13446
      H1   -17.45021  -14.27408   12.49844
       H   -15.03820  -13.25823    9.04951
       O   -15.66503  -14.04601    8.97948
      H1   -15.31940  -14.74714    9.58621
       H   -15.07407  -12.91484   12.69071
       O   -15.34771  -11.98061   12.74469
      H1   -16.19449  -11.77777   12.32074
       H   -14.34487  -14.89149   12.45555
       O   -14.14957  -14.37910   13.23936
      H1   -14.66038  -14.72549   14.00117
       H   -14.68633   -9.71632   11.55582
       O   -14.34509   -9.90039   10.70457
      H1   -14.34509   -9.09094   10.10967
       H   -11.13282  -14.19832   11.32190
       O   -11.65154  -13.52719   11.76581
      H1   -12.43091  -14.05400   12.18646
       H   -17.06447  -13.23953    9.61437
       O   -17.93201  -12.78471    9.79652
      H1   -17.73496  -11.99460   10.28294
       H   -16.30837  -12.60285   16.48316
       O   -16.97635  -11.93520   16.24916
      H1   -17.21526  -12.21153   15.35413
       H   -15.71535  -15.32957   11.34072
       O   -14.96390  -15.71578   10.89881
      H1   -14.88878  -16.64279   11.21551
       H   -14.91719  -10.79784   13.83690
       O   -14.61180  -10.20034   14.56359
      H1   -13.99065   -9.52514   14.32098

