45
frame 4 | Written by MDAnalysis XYZWriter (release 2.4.3)
       H     2.90192   13.96199   16.63245
       O     3.50810   13.37128   17.10289
      H1     4.37033   13.40825   16.66195
       H     2.59703   11.78123   17.58257
       O     2.46912   10.91462   17.98281
      H1     3.09850   10.83168   18.70512
       H     5.61282   12.88116   14.64444
       O     6.38680   12.94699   15.25739
      H1     6.61897   12.04831   15.46713
       H     5.22188   15.96380   18.62889
       O     4.35548   16.39416   18.72715
      H1     4.42687   17.01896   19.46136
       H     4.18707   17.56823   12.84590
       O     3.28014   17.32971   13.19620
      H1     2.81953   17.00166   12.39375
       H     2.16792   15.91113   17.85225
       O     1.28038   15.57028   17.78098
      H1     0.76536   16.26731   17.29408
       H    11.01628   15.45982   19.34910
       O    10.11695   15.14715   19.07608
      H1     9.51057   15.86840   19.36025
       H     0.07169   13.46826   18.17327
       O    -0.18399   12.91700   17.38680
      H1    -1.17937   12.86190   17.46416
       H    -0.44278   16.80992   15.31584
       O    -0.16008   17.09914   16.17738
      H1     0.17159   17.98655   16.20772
       H     4.18849   17.35777   15.49461
       O     4.25786   17.83491   16.31899
      H1     4.21403   17.23120   17.07533
       H     6.61902   13.91109   16.93217
       O     6.51547   14.43001   17.71187
      H1     6.47428   13.79539   18.44148
       H     8.63087   16.81497   17.56406
       O     7.71321   16.85281   17.90140
      H1     7.38379   15.98106   17.85297
       H     7.65253   18.11964   14.55867
       O     7.25614   18.60779   15.33005
      H1     7.21501   17.96074   16.03591
       H    10.18793   17.25546   15.69509
       O     9.91877   17.74751   16.46474
      H1     9.11584   18.30330   16.22926
       H     2.87098   14.64525   13.73817
       O     2.53763   14.13120   14.45285
      H1     1.72005   13.76115   14.06069

