45
frame 5 | Written by MDAnalysis XYZWriter (release 2.4.3)
       H     6.14507   19.73750   -5.29073
       O     6.68773   19.22197   -4.69427
      H1     6.30905   18.33289   -4.76194
       H     6.11899   12.35548   -1.83505
       O     5.36034   11.75896   -2.04058
      H1     5.34387   11.56890   -2.99174
       H     7.91586   13.24465   -8.43115
       O     8.58496   13.45756   -7.78687
      H1     8.56566   12.66922   -7.16285
       H     8.66829   10.50265   -6.38943
       O     8.38719   11.34531   -5.98532
      H1     7.45442   11.21177   -5.84214
       H     9.54921   10.56734   -3.11148
       O     8.61807   10.51649   -3.46578
      H1     8.66878   11.06153   -4.24044
       H     7.40184   17.23651   -2.18438
       O     6.73181   16.60550   -2.41610
      H1     6.79094   15.91297   -1.64256
       H     3.23841   16.99925   -3.39065
       O     3.29072   16.03726   -3.20091
      H1     4.14846   15.93577   -2.73530
       H     4.43266   11.45803   -4.62022
       O     4.80364   10.57886   -4.44640
      H1     4.07176   10.14499   -3.92806
       H     5.85812   14.10258   -4.12630
       O     6.68247   14.40429   -4.58095
      H1     6.83640   15.31189   -4.23637
       H     9.66287   15.14421   -3.53086
       O     9.88717   14.72070   -2.72058
      H1     9.16236   14.16268   -2.39407
       H     8.05922   11.91811   -1.84461
       O     7.82642   12.86764   -1.69545
      H1     8.04747   13.00585   -0.72123
       H     4.02804   17.53695   -6.30964
       O     4.59449   17.36630   -5.59716
      H1     4.23613   16.54362   -5.21207
       H     9.18721   15.91166   -5.67181
       O     9.81330   16.14988   -4.98762
      H1     9.68900   17.09591   -4.84753
       H     3.33732   14.03532   -3.53847
       O     3.74739   13.41070   -4.20683
      H1     3.09576   13.38922   -4.91363
       H     5.76888   14.15752   -6.67370
       O     5.04816   13.82662   -7.26493
      H1     5.61519   13.37449   -7.96580

