45
frame 5 | Written by MDAnalysis XYZWriter (release 2.4.3)
       H    15.63608   -6.50941  -20.18488
       O    16.35331   -6.93581  -19.71802
      H1    16.12105   -7.07965  -18.74485
       H    16.95095   -5.43106  -13.68227
       O    16.31409   -6.10093  -13.43076
      H1    15.71083   -5.60676  -12.85414
       H    15.11293   -6.32789  -14.56954
       O    14.48578   -6.40744  -15.28450
      H1    13.80309   -7.02331  -14.95951
       H    11.91530   -5.87763  -14.88462
       O    11.33986   -6.01324  -15.63108
      H1    10.57814   -6.51680  -15.26113
       H    15.80585   -3.66188  -18.65718
       O    15.47667   -3.29016  -17.81933
      H1    14.87093   -3.93782  -17.46671
       H    14.97521   -2.94745  -14.16527
       O    14.30170   -3.48449  -14.63379
      H1    14.78336   -4.29482  -14.91784
       H    12.24845   -1.50223  -13.63166
       O    12.01786   -2.41855  -13.53819
      H1    12.82256   -2.91053  -13.93342
       H    18.35197   -8.44384  -14.21045
       O    18.57565   -8.46898  -15.15830
      H1    18.27226   -7.71927  -15.64252
       H    14.58994   -9.66515  -13.89287
       O    14.41570  -10.04382  -13.01513
      H1    13.89700  -10.86679  -13.14345
       H    12.93955   -7.22159  -13.21216
       O    12.61733   -8.03922  -13.67500
      H1    13.10859   -8.72358  -13.22751
       H    13.88333   -6.58313  -11.71425
       O    13.49910   -5.89556  -12.31894
      H1    12.94757   -5.37876  -11.70146
       H    13.54264   -9.86505  -15.60104
       O    14.43815   -9.74357  -15.74389
      H1    14.43561   -8.91365  -16.26068
       H    16.72902   -7.05372  -17.02557
       O    15.91869   -7.56871  -17.17695
      H1    15.26325   -7.03021  -16.67455
       H    11.33278   -5.38835  -18.64854
       O    11.97508   -4.68384  -18.27931
      H1    12.06871   -5.06768  -17.37555
       H    19.19278   -5.84451  -16.90977
       O    18.46428   -6.33934  -17.15437
      H1    18.78769   -6.99227  -17.81705

