45
frame 4 | Written by MDAnalysis XYZWriter (release 2.4.3)
       H   -15.49607   11.43153    2.42169
       O   -16.35019   11.79170    2.06385
      H1   -16.14614   12.75527    2.03487
       H   -11.39215    9.10918    3.88862
       O   -12.18448    9.50222    4.27212
      H1   -12.83032    9.59873    3.52221
       H   -14.39944    9.68990    6.78679
       O   -14.04716   10.33359    7.43172
      H1   -13.35724    9.89903    7.91022
       H   -11.27801    9.13613    7.24716
       O   -10.68437    9.65465    6.61885
      H1   -11.10584    9.71044    5.77919
       H    -8.78758   12.37195    2.71112
       O    -8.38798   11.65710    2.24547
      H1    -9.12591   11.50049    1.56496
       H   -12.85956   11.73179    1.76343
       O   -13.47068   11.03451    2.03125
      H1   -13.78799   10.53211    1.25590
       H   -10.48305   13.76079    3.73177
       O    -9.69160   14.11652    3.31981
      H1   -10.04474   14.38909    2.44052
       H   -11.94538   11.58723    4.38911
       O   -11.64207   12.44823    4.67461
      H1   -11.04697   12.33669    5.38727
       H    -9.03532    9.87004    3.08166
       O    -9.57052    9.08283    3.22556
      H1    -9.02927    8.27759    3.47462
       H   -11.85407   13.26330   -0.31222
       O   -12.62432   13.11317    0.26210
      H1   -13.17593   13.92270    0.32857
       H   -16.59256   11.22806    4.98121
       O   -15.95351   11.64436    5.55689
      H1   -15.14648   11.09953    5.59324
       H   -15.28509    8.06710    4.89071
       O   -14.71776    8.69816    5.39855
      H1   -13.82384    8.59058    5.04205
       H   -13.14176   13.49610    5.82666
       O   -13.95588   13.68308    6.40649
      H1   -14.64012   13.24818    5.87624
       H    -9.94231   12.51681    8.27182
       O    -9.73279   12.05779    7.43894
      H1   -10.17978   11.19278    7.41310
       H    -7.15009    9.98000    6.53401
       O    -7.19046   10.88049    6.21419
      H1    -8.11054   11.07064    6.28679

