45
frame 5 | Written by MDAnalysis XYZWriter (release 2.4.3)
       H    -3.62217    2.82625   -2.27314
       O    -3.74615    2.19053   -3.01351
      H1    -4.68560    2.02280   -3.03168
       H    -7.41444    2.04427   -3.64685
       O    -6.63643    2.20188   -3.08175
      H1    -6.74984    1.49156   -2.38591
       H    -4.25207   -2.20022   -3.63788
       O    -3.45883   -2.48627   -3.19999
      H1    -2.73231   -2.19125   -3.72928
       H    -4.58088    2.67843    0.88569
       O    -4.74959    2.24967    1.67157
      H1    -5.05113    1.39537    1.48131
       H    -5.26496   -0.23091    0.01258
       O    -5.63475   -0.37090    0.94963
      H1    -6.37312   -0.94531    0.86548
       H    -6.23932   -0.89157   -2.91895
       O    -6.57279   -0.42533   -2.16584
      H1    -6.89422   -1.15413   -1.61645
       H   -11.13807    0.39392   -1.64247
       O   -11.79894    0.37427   -2.35475
      H1   -11.71230    1.18520   -2.86564
       H    -5.71522   -1.44325   -5.01349
       O    -5.93455   -2.21665   -4.42854
      H1    -6.62638   -2.73443   -4.80779
       H    -8.04228   -2.49505   -0.09563
       O    -8.23665   -1.70842    0.35060
      H1    -8.58078   -2.04142    1.19011
       H    -3.48931   -4.64930   -1.45801
       O    -4.36764   -4.93869   -1.28262
      H1    -4.66252   -4.78441   -2.14881
       H    -7.42479   -3.69205   -2.68146
       O    -7.59615   -3.52599   -1.77976
      H1    -7.82634   -4.38631   -1.42836
       H    -3.96059   -1.79006    3.56002
       O    -3.90692   -2.10247    2.56768
      H1    -4.50106   -1.60013    2.02311
       H    -3.53987   -1.25799   -1.35466
       O    -3.51172   -0.28829   -1.07539
      H1    -3.42477    0.21665   -1.89519
       H    -9.39045   -0.35357   -0.03748
       O    -9.97770    0.38546   -0.12900
      H1    -9.40063    1.16175   -0.06179
       H    -5.41017   -5.06991    1.87029
       O    -5.87045   -4.44733    1.25181
      H1    -5.46987   -4.51680    0.36533

