45
frame 5 | Written by MDAnalysis XYZWriter (release 2.4.3)
       H    15.13533   -1.40602  -16.62624
       O    14.81993   -0.59778  -16.31833
      H1    15.62430   -0.25149  -15.90645
       H    15.63608   -6.50941  -20.18488
       O    16.35331   -6.93581  -19.71802
      H1    16.12105   -7.07965  -18.74485
       H    16.95095   -5.43106  -13.68227
       O    16.31409   -6.10093  -13.43076
      H1    15.71083   -5.60676  -12.85414
       H    15.11293   -6.32789  -14.56954
       O    14.48578   -6.40744  -15.28450
      H1    13.80309   -7.02331  -14.95951
       H    15.80585   -3.66188  -18.65718
       O    15.47667   -3.29016  -17.81933
      H1    14.87093   -3.93782  -17.46671
       H    14.97521   -2.94745  -14.16527
       O    14.30170   -3.48449  -14.63379
      H1    14.78336   -4.29482  -14.91784
       H    18.35197   -8.44384  -14.21045
       O    18.57565   -8.46898  -15.15830
      H1    18.27226   -7.71927  -15.64252
       H    18.11117   -4.66280  -18.38720
       O    18.67086   -3.95907  -18.79950
      H1    18.83316   -3.45338  -18.07083
       H    19.75593   -1.93212  -16.58031
       O    18.80687   -1.99153  -16.86232
      H1    18.72377   -1.22773  -17.47687
       H    18.05998    0.47961  -18.39644
       O    18.21731   -0.21529  -19.02881
      H1    17.30580   -0.35356  -19.35159
       H    18.68386   -3.29670  -13.57185
       O    18.11089   -4.07192  -13.43396
      H1    17.82621   -4.13139  -12.52290
       H    16.72902   -7.05372  -17.02557
       O    15.91869   -7.56871  -17.17695
      H1    15.26325   -7.03021  -16.67455
       H    16.93884   -2.58598  -13.47622
       O    16.07273   -2.30791  -13.05446
      H1    15.96049   -1.37753  -13.23381
       H    13.91740   -1.25983  -18.68336
       O    13.27050   -0.74900  -19.17330
      H1    12.87323   -1.38760  -19.82925
       H    19.19278   -5.84451  -16.90977
       O    18.46428   -6.33934  -17.15437
      H1    18.78769   -6.99227  -17.81705

