45
frame 4 | Written by MDAnalysis XYZWriter (release 2.4.3)
       H    -9.66712    0.78096  -17.35084
       O    -9.53187   -0.19040  -17.33939
      H1    -9.81094   -0.42920  -18.21262
       H   -10.91534    5.65862  -18.46283
       O   -11.11625    4.82978  -18.89606
      H1   -11.98511    4.59691  -18.53379
       H    -7.22129    0.80508  -12.84439
       O    -7.62642   -0.05554  -12.96554
      H1    -8.56968    0.03849  -12.81747
       H    -8.48565   -2.62257  -17.66639
       O    -8.22904   -2.74247  -18.55991
      H1    -8.09288   -3.67752  -18.78749
       H   -10.85032    3.02042  -12.20591
       O   -10.08147    2.54690  -12.62033
      H1    -9.55088    3.17958  -13.13501
       H    -9.29870   -1.61031  -15.99487
       O    -8.94700   -2.50942  -15.78292
      H1    -9.51188   -2.82389  -14.97422
       H   -10.06365    3.22386  -17.80568
       O    -9.64944    2.54792  -17.24511
      H1   -10.29993    2.54053  -16.51419
       H    -5.17941    0.77460  -18.70786
       O    -5.81821    1.49621  -18.46653
      H1    -5.65423    1.69163  -17.58059
       H    -8.47000    5.80561  -19.98020
       O    -8.52044    5.00516  -19.40200
      H1    -9.48285    4.81595  -19.40586
       H   -10.34412    0.50580  -15.41708
       O   -10.84749    1.23423  -15.02749
      H1   -10.62827    1.25901  -14.08607
       H    -6.59438    3.65955  -16.51604
       O    -6.98007    2.76801  -16.24392
      H1    -7.84428    2.73845  -16.58683
       H   -12.40808   -1.14238  -18.06942
       O   -13.27896   -0.79686  -17.97386
      H1   -13.78500   -1.61168  -17.91832
       H   -13.76978    3.84967  -18.61817
       O   -13.33021    3.98824  -17.76779
      H1   -13.72176    3.31410  -17.17048
       H   -13.24324   -0.35487  -16.28420
       O   -13.10879   -0.21424  -15.34524
      H1   -12.31183    0.32449  -15.30735
       H    -7.40326    3.65214  -14.78469
       O    -7.93213    3.84681  -13.99340
      H1    -7.80055    4.79134  -13.91771

