45
frame 5 | Written by MDAnalysis XYZWriter (release 2.4.3)
       H   -17.56461   11.75105    1.41614
       O   -18.13266   11.51827    0.65253
      H1   -17.70506   11.96775   -0.09449
       H   -16.82009   12.34902   -4.49472
       O   -17.66244   11.85953   -4.28169
      H1   -17.54623   10.88651   -4.19003
       H   -20.15042   16.28201   -3.27509
       O   -19.43267   15.69082   -3.48785
      H1   -18.81910   15.68557   -2.75932
       H   -13.91384   16.04524   -1.14577
       O   -14.56516   15.30040   -1.16608
      H1   -14.97261   15.25511   -2.06023
       H   -17.91109   17.90019   -6.36578
       O   -17.85756   18.83381   -6.14564
      H1   -18.75271   19.20713   -5.92409
       H   -18.55128   17.16833    1.84317
       O   -18.41797   18.05520    1.62092
      H1   -19.27849   18.45706    1.83997
       H   -15.48702   16.59661   -4.24752
       O   -15.58947   15.68192   -3.99845
      H1   -14.96092   15.27260   -4.64907
       H   -16.44584   14.70085    0.57902
       O   -16.78731   14.78879    1.45657
      H1   -17.72338   14.64391    1.26923
       H   -17.46155   18.46218    0.15058
       O   -17.11438   18.82824   -0.70168
      H1   -16.20481   18.84049   -0.49987
       H   -17.36090   13.51306   -1.61161
       O   -17.01408   12.60717   -1.77905
      H1   -17.42990   12.31480   -2.66324
       H   -18.40437   16.14899   -5.35576
       O   -17.87301   16.09139   -6.20847
      H1   -16.90660   16.03115   -5.97623
       H   -16.14783   18.77567   -5.13102
       O   -15.35652   18.54756   -4.62357
      H1   -14.79304   18.18665   -5.37169
       H   -17.91043   17.31953   -8.77380
       O   -18.70310   16.74819   -8.64335
      H1   -18.47835   16.41831   -7.75507
       H   -17.46916   15.94502   -1.01817
       O   -17.84626   15.09446   -1.27890
      H1   -18.68292   15.01976   -0.81183
       H   -15.12076   14.95263   -7.86575
       O   -15.81925   14.55272   -7.43082
      H1   -15.43120   13.86365   -6.86050

