45
frame 0 | Written by MDAnalysis XYZWriter (release 2.4.3)
       H     5.54253   -0.78345  -18.59794
       O     4.69812   -0.91095  -19.12273
      H1     4.03956   -0.47333  -18.54106
       H     3.36463   -5.49331  -18.55846
       O     3.70787   -6.15764  -19.15086
      H1     3.60298   -5.65958  -19.95940
       H     4.96331    3.88282  -19.82249
       O     4.74867    3.14102  -19.20103
      H1     4.15507    3.48670  -18.53231
       H     7.97384   -1.72290  -15.88453
       O     7.37840   -1.18235  -15.36162
      H1     7.65056   -1.42006  -14.47594
       H     5.61341    1.31828  -13.51737
       O     5.40906    0.75792  -14.28002
      H1     6.11992    0.10636  -14.30709
       H     0.53999   -2.09919  -15.44759
       O     0.78970   -1.83215  -16.38688
      H1    -0.04983   -1.60907  -16.85992
       H     3.49528   -3.31366  -13.62541
       O     4.25768   -3.48222  -14.21698
      H1     4.35076   -2.75406  -14.91688
       H     8.12222    0.60606  -16.11411
       O     8.63294    1.18841  -16.68243
      H1     7.99096    1.78769  -17.08056
       H     4.22218   -1.22911  -16.49562
       O     4.80459   -2.03246  -16.37049
      H1     5.69168   -1.66859  -16.11423
       H     3.55210    0.05608  -14.24545
       O     2.62241   -0.02180  -14.00620
      H1     2.27295    0.81172  -13.73089
       H    -0.29736    0.14981  -16.32721
       O    -0.81092    0.81239  -15.83750
      H1    -0.69371    0.54477  -14.88327
       H     7.65562    3.64699  -17.57596
       O     7.47551    2.99564  -18.24928
      H1     6.52289    2.83709  -18.20120
       H     3.01110   -0.06245  -15.92668
       O     3.35552    0.12084  -16.79670
      H1     3.59720    1.06790  -16.71024
       H     2.42453   -3.14012  -18.43388
       O     3.23834   -3.64472  -18.16696
      H1     3.55633   -3.10921  -17.40595
       H     8.59693   -3.65896  -18.11552
       O     8.27985   -4.03755  -18.96397
      H1     7.54194   -3.55408  -19.37060

