45
frame 5 | Written by MDAnalysis XYZWriter (release 2.4.3)
       H     9.04739  -13.61428   13.41380
       O     9.34322  -14.29400   14.05047
      H1     8.63414  -14.41353   14.69669
       H     8.38788  -11.22790   11.43438
       O     8.80330  -10.79727   10.65469
      H1     9.19186   -9.95777   10.95118
       H    12.63297  -13.56928   14.74687
       O    11.95800  -13.43660   15.42049
      H1    11.07348  -13.57770   15.01258
       H    12.22045  -11.54342   15.31850
       O    11.99396  -10.60436   15.06006
      H1    11.72287  -10.63842   14.13775
       H     9.36414   -8.25698   13.76999
       O     9.84150   -7.49753   13.33984
      H1    10.10033   -7.89346   12.50419
       H    12.72773   -7.55286   14.61459
       O    12.14469   -6.79641   14.83388
      H1    11.28909   -7.11228   14.41258
       H    11.56715  -10.27765   16.92333
       O    10.94536  -10.13167   17.68476
      H1    10.97514  -10.97704   18.17842
       H    14.63021   -8.82365   14.78284
       O    13.98562   -8.92333   14.05218
      H1    13.42658   -9.64010   14.37455
       H    11.09562  -11.15889   12.32593
       O    11.52383  -10.27771   12.50440
      H1    12.48951  -10.41415   12.33522
       H    10.93133   -9.14724   11.29900
       O    10.26440   -8.53343   10.94410
      H1    10.78475   -7.70011   10.66527
       H    14.70950  -13.97376   13.67172
       O    13.85067  -13.50540   13.32354
      H1    14.12823  -12.70420   12.86403
       H     8.02317  -11.30242   13.52599
       O     8.03941  -12.07453   12.97821
      H1     7.14446  -12.35048   12.86297
       H    14.40784   -9.88990   12.55838
       O    14.06234  -10.45836   11.86331
      H1    14.50475  -10.19622   11.03112
       H     8.30102   -7.94823   17.75990
       O     8.39690   -8.83949   17.40808
      H1     9.24275   -9.18455   17.56603
       H     8.34249   -9.20466   15.55908
       O     8.14968   -9.46473   14.63722
      H1     7.31563   -9.04516   14.41218

