45
frame 4 | Written by MDAnalysis XYZWriter (release 2.4.3)
       H     3.45347   -3.23142   14.01784
       O     3.89962   -4.11455   13.88599
      H1     3.27282   -4.77894   14.13893
       H     1.02967   -7.55774   13.65896
       O     1.62839   -7.22763   14.34274
      H1     2.49662   -7.38699   13.97661
       H     5.24893   -3.50163   16.20441
       O     5.97958   -3.66447   15.53227
      H1     5.50173   -3.71852   14.70835
       H     3.88642   -9.87300   16.23468
       O     4.56396  -10.55060   16.04408
      H1     5.19547  -10.48538   16.82740
       H     2.83355   -9.10741   19.49613
       O     1.91604   -9.38550   19.30208
      H1     1.76423   -9.16027   18.36985
       H     4.81387   -6.97473   13.13171
       O     4.32569   -7.32913   13.88796
      H1     4.56079   -8.28623   13.82012
       H     4.34383   -7.49683   18.79803
       O     3.93820   -6.78249   18.24707
      H1     4.36870   -6.79817   17.41552
       H    -0.51255   -7.74934   18.60522
       O    -0.65707   -8.28931   19.40463
      H1     0.21605   -8.73787   19.51670
       H    -0.39780   -5.86166   17.12619
       O    -0.00429   -6.75886   17.29478
      H1    -0.42544   -7.36150   16.68969
       H     7.84983   -9.13806   17.63679
       O     7.98082   -9.91215   17.04998
      H1     8.94189   -9.97940   17.01020
       H     3.51241   -4.04068   17.69372
       O     4.25848   -3.43244   17.58147
      H1     4.72950   -3.38641   18.41950
       H     5.69956   -6.67073   15.07427
       O     5.86353   -6.32371   15.96068
      H1     6.06531   -5.33964   15.79129
       H     6.66804   -7.17110   17.19911
       O     7.06693   -7.45923   18.05301
      H1     7.16022   -6.63441   18.56182
       H     1.71115   -5.44960   17.19546
       O     2.09763   -4.73256   16.73332
      H1     1.65809   -4.64021   15.88067
       H     1.95995   -8.11837   15.84160
       O     2.35603   -8.61686   16.58407
      H1     2.59347   -7.96188   17.26629

