45
frame 5 | Written by MDAnalysis XYZWriter (release 2.4.3)
       H    -4.70531   -7.61271   -1.15268
       O    -4.97627   -8.50357   -0.82977
      H1    -4.42834   -8.47779   -0.05084
       H    -4.89546   -2.59345   -7.66553
       O    -4.22403   -1.85191   -7.70741
      H1    -4.38873   -1.42848   -8.57811
       H    -0.45830   -1.94001   -5.18200
       O    -1.21124   -1.85578   -4.54444
      H1    -0.75225   -1.59432   -3.75467
       H     0.05689   -6.91536   -3.30640
       O     0.37788   -6.00053   -3.36668
      H1     1.33631   -6.07082   -3.65688
       H    -2.95843   -4.69873   -7.62779
       O    -3.59942   -5.29525   -7.21626
      H1    -3.99499   -5.94093   -7.90552
       H    -4.25207   -2.20022   -3.63788
       O    -3.45883   -2.48627   -3.19999
      H1    -2.73231   -2.19125   -3.72928
       H    -0.40387   -5.61930   -6.45837
       O    -0.41224   -5.01166   -5.71498
      H1    -0.01911   -5.49608   -4.97188
       H    -7.83878   -4.55016   -4.56804
       O    -7.76001   -3.91642   -5.32122
      H1    -7.06435   -4.16222   -5.92333
       H    -1.28715   -3.14921   -7.40594
       O    -2.02793   -3.40316   -7.93276
      H1    -2.79694   -2.77556   -7.75392
       H    -5.34754   -6.79564   -4.86530
       O    -5.68108   -7.34167   -5.55982
      H1    -6.16457   -8.04274   -5.14961
       H    -3.28750   -6.43966   -4.82529
       O    -3.77514   -5.87352   -4.18821
      H1    -3.45206   -4.97589   -4.36988
       H    -5.71522   -1.44325   -5.01349
       O    -5.93455   -2.21665   -4.42854
      H1    -6.62638   -2.73443   -4.80779
       H    -3.89487   -7.74201   -6.07825
       O    -2.91335   -7.62213   -6.04122
      H1    -2.86638   -6.79396   -6.50302
       H    -3.48931   -4.64930   -1.45801
       O    -4.36764   -4.93869   -1.28262
      H1    -4.66252   -4.78441   -2.14881
       H    -5.06260   -4.39586   -7.20016
       O    -5.91682   -3.91885   -7.46688
      H1    -5.90484   -3.93416   -8.43429

