45
frame 4 | Written by MDAnalysis XYZWriter (release 2.4.3)
       H    16.03257   12.96770    3.66719
       O    15.93162   12.86142    2.70382
      H1    16.80013   12.90675    2.33433
       H    19.39237   12.37296    2.04445
       O    18.65246   12.78988    2.38967
      H1    18.36036   12.36348    3.19729
       H    18.53724   15.09390    2.73382
       O    18.78437   15.63155    1.93904
      H1    18.07324   16.21642    1.72818
       H    15.41212   10.25858    9.35069
       O    15.45758    9.91851   10.23914
      H1    15.50105    8.98110   10.10135
       H    17.91286    9.26970    2.16586
       O    18.23561    9.65312    2.99059
      H1    18.89567    9.05053    3.37859
       H    17.09132    9.37968    4.42795
       O    16.52637    9.38726    5.21075
      H1    16.25487    8.50035    5.38494
       H    17.08965   14.51936    9.19141
       O    17.06248   15.45628    9.39773
      H1    16.87335   15.44183   10.30665
       H    17.36647   11.03525    5.55726
       O    17.56577   11.96444    5.73585
      H1    18.43314   11.89500    6.14726
       H    17.42682   12.12648    8.73755
       O    16.88952   12.85156    8.30613
      H1    16.94685   12.65939    7.37135
       H    14.17170   13.08452    5.97537
       O    13.25180   13.01163    5.79162
      H1    13.11061   12.10162    5.57232
       H    15.04767   12.09342    8.49853
       O    14.42504   11.42133    8.35470
      H1    14.48529   11.12183    7.46038
       H    13.51974    9.33384    6.56796
       O    13.99096    9.94277    6.00445
      H1    14.85269    9.59326    5.80330
       H    18.40520    9.90062    9.43584
       O    17.95814   10.73954    9.81366
      H1    17.04236   10.52998   10.06727
       H    17.85628   16.63753    4.70445
       O    18.36755   15.75495    4.69677
      H1    19.15862   15.91208    5.19014
       H    15.37170   15.25209    5.08184
       O    15.83275   14.41124    5.13627
      H1    16.77676   14.67848    4.97919

