45
frame 4 | Written by MDAnalysis XYZWriter (release 2.4.3)
       H   -20.07891  -12.36657   13.99088
       O   -19.28180  -12.85010   13.67055
      H1   -19.18645  -13.53033   14.26604
       H   -17.97532  -10.21632   12.28345
       O   -17.81399  -11.15306   12.02639
      H1   -18.42229  -11.65260   12.60904
       H   -16.98634   -7.50165   11.73871
       O   -17.72971   -8.13560   11.84430
      H1   -18.23991   -8.11612   11.03674
       H   -17.07182   -8.46588   13.85343
       O   -16.95777   -8.88882   14.69449
      H1   -16.14485   -9.39178   14.61988
       H   -17.85343  -15.52056   11.62701
       O   -17.13892  -15.10734   12.13446
      H1   -17.45021  -14.27408   12.49844
       H   -15.07407  -12.91484   12.69071
       O   -15.34771  -11.98061   12.74469
      H1   -16.19449  -11.77777   12.32074
       H   -18.48689  -13.04001    6.66903
       O   -18.75194  -12.40424    7.34621
      H1   -18.33829  -12.73569    8.17516
       H   -18.78297  -15.63769   14.85884
       O   -18.49665  -14.91794   15.43575
      H1   -19.00563  -15.05077   16.21836
       H   -14.68633   -9.71632   11.55582
       O   -14.34509   -9.90039   10.70457
      H1   -14.34509   -9.09094   10.10967
       H   -18.40055   -9.24691   15.93913
       O   -19.05103   -8.86998   16.56810
      H1   -19.50294   -9.65508   16.87434
       H   -17.06447  -13.23953    9.61437
       O   -17.93201  -12.78471    9.79652
      H1   -17.73496  -11.99460   10.28294
       H   -16.30837  -12.60285   16.48316
       O   -16.97635  -11.93520   16.24916
      H1   -17.21526  -12.21153   15.35413
       H   -15.71535  -15.32957   11.34072
       O   -14.96390  -15.71578   10.89881
      H1   -14.88878  -16.64279   11.21551
       H   -16.71024  -14.98263   15.40965
       O   -15.75931  -15.11678   15.35193
      H1   -15.57719  -16.03750   15.55177
       H   -14.91719  -10.79784   13.83690
       O   -14.61180  -10.20034   14.56359
      H1   -13.99065   -9.52514   14.32098

