45
frame 0 | Written by MDAnalysis XYZWriter (release 2.4.3)
       H   -18.34826  -17.75751   -4.06500
       O   -19.05969  -17.24859   -4.59340
      H1   -19.20863  -16.49719   -3.97888
       H   -17.78012  -14.87810   -9.72648
       O   -18.44531  -15.09949  -10.35276
      H1   -18.17179  -14.80809  -11.26440
       H   -13.24358  -17.49583   -9.66773
       O   -13.87211  -17.19930   -9.02188
      H1   -13.63814  -16.29078   -8.83720
       H   -16.86058  -15.24251   -7.08080
       O   -16.74241  -15.21668   -8.02386
      H1   -16.04836  -14.56871   -8.22039
       H   -16.40323  -15.14602   -4.77302
       O   -16.54279  -15.95881   -5.37503
      H1   -17.42029  -16.29010   -5.20106
       H   -16.67853  -18.23635   -8.04713
       O   -17.51201  -17.85238   -7.78979
      H1   -17.41916  -16.93532   -8.02985
       H   -15.41241  -17.36774  -10.06421
       O   -16.06343  -17.54548  -10.79190
      H1   -16.84453  -16.98137  -10.52706
       H   -15.62335  -11.24274   -5.19570
       O   -15.74637  -12.12910   -5.50832
      H1   -15.81651  -12.66430   -4.73247
       H   -15.26085  -18.50583   -4.46949
       O   -14.68408  -17.90202   -4.94449
      H1   -15.33664  -17.16535   -5.27789
       H   -15.56738  -12.60132   -8.96928
       O   -15.80412  -11.85297   -8.37388
      H1   -16.00642  -12.29818   -7.53234
       H   -14.17079  -14.36955   -9.47023
       O   -14.95958  -13.95125   -9.84562
      H1   -14.66193  -13.50767  -10.62841
       H   -15.10470  -13.96489   -3.25535
       O   -15.99833  -13.92989   -3.55156
      H1   -16.47527  -14.16788   -2.75650
       H   -11.95996  -14.99630   -8.40405
       O   -12.80221  -14.52483   -8.48239
      H1   -13.13548  -14.37562   -7.62076
       H   -18.25669  -11.58937   -5.51724
       O   -18.85281  -10.88556   -5.75189
      H1   -19.45550  -11.38062   -6.33533
       H   -14.13531  -12.95300   -5.49573
       O   -13.35894  -13.55517   -5.69809
      H1   -12.59400  -13.12492   -5.22527

