45
frame 0 | Written by MDAnalysis XYZWriter (release 2.4.3)
       H   -16.76718   16.42579    5.60248
       O   -17.33144   17.16703    5.94091
      H1   -17.06006   17.68924    6.72140
       H   -17.67905   19.12893    8.31481
       O   -16.87840   18.61651    8.09336
      H1   -16.95716   17.82106    8.63754
       H   -11.01769   16.62754    9.46773
       O   -10.41792   17.02495    8.84218
      H1    -9.55903   17.07034    9.31356
       H   -14.52348   18.70808   13.18885
       O   -14.72566   19.65311   13.06129
      H1   -13.89956   20.13802   13.18582
       H   -13.98619   18.92791    4.15642
       O   -13.46555   19.58813    4.69268
      H1   -13.44244   20.29820    4.06224
       H   -14.63845   17.03167    8.72742
       O   -14.57777   16.23011    8.11096
      H1   -15.15799   15.59322    8.61155
       H   -12.84414   17.82635   11.69232
       O   -13.21192   17.13863   11.06670
      H1   -13.72925   17.64667   10.43190
       H   -11.71949   18.42220    5.42819
       O   -11.01683   18.77107    5.98807
      H1   -11.47967   19.36946    6.59912
       H   -15.76039   16.43593   12.83905
       O   -15.84918   17.12780   12.16656
      H1   -15.02982   17.35338   11.64892
       H   -15.49441   18.89628    9.01577
       O   -14.62308   18.81935    9.47314
      H1   -13.99462   19.26884    8.90628
       H   -11.19345   18.79779    8.72317
       O   -11.52840   19.67820    8.77627
      H1   -10.70463   20.24340    8.92618
       H   -17.78901   15.60079    9.71521
       O   -17.22038   16.33393    9.71852
      H1   -16.83200   16.36599   10.59974
       H   -12.19550   18.13246   13.55582
       O   -11.87104   18.70817   12.79523
      H1   -11.87768   19.62973   13.04233
       H   -17.08594   18.38792   11.66421
       O   -17.89481   18.89282   11.52009
      H1   -18.14420   18.90325   12.45127
       H   -12.80100   14.82387    7.24446
       O   -12.47368   14.21124    6.60013
      H1   -11.69661   14.62628    6.22739

