45
frame 4 | Written by MDAnalysis XYZWriter (release 2.4.3)
       H     1.74126  -12.07222   -6.45469
       O     1.53465  -12.63452   -7.19445
      H1     0.73929  -13.02863   -6.85917
       H    -0.58983   -8.09120   -2.59520
       O     0.04385   -8.63507   -3.01096
      H1    -0.34639   -8.98438   -3.81800
       H     3.08541  -10.69931   -4.37488
       O     2.17118  -10.36514   -4.54796
      H1     1.58286  -10.72467   -3.86791
       H     5.57374  -13.69770   -3.17743
       O     4.67039  -13.36262   -3.15700
      H1     4.08432  -13.82706   -3.79644
       H    -0.99041  -14.30648   -5.81079
       O    -0.57756  -13.37825   -5.65175
      H1    -1.27066  -12.84115   -6.10969
       H     0.14437  -12.79790   -4.05405
       O     0.64522  -12.33756   -3.38513
      H1     0.52773  -12.80319   -2.51097
       H    -3.68868  -11.62058   -3.38558
       O    -3.75859  -12.10226   -4.20246
      H1    -4.51780  -11.67499   -4.61793
       H     0.91100   -9.56317   -1.74119
       O     1.24505  -10.18660   -1.01591
      H1     1.63976   -9.51406   -0.43848
       H    -1.46306  -15.13132   -1.20963
       O    -2.35483  -15.52859   -1.13822
      H1    -2.28674  -16.44412   -1.43832
       H    -0.59902  -11.16438   -8.08443
       O    -1.30875  -10.53926   -7.73034
      H1    -1.08652  -10.17049   -6.92055
       H    -0.58672  -13.13446   -0.70565
       O    -0.06484  -13.82447   -1.06617
      H1     0.73997  -14.09466   -0.48879
       H     2.47710  -15.27882   -2.97861
       O     2.34258  -14.65954   -3.71908
      H1     1.65688  -14.11531   -3.46091
       H     3.00584  -15.60833   -6.79780
       O     2.52988  -16.17522   -6.16891
      H1     2.46759  -15.72715   -5.28304
       H    -2.11731  -10.03246   -4.42593
       O    -1.69344   -9.55303   -5.15737
      H1    -2.20328   -8.74155   -4.94172
       H    -1.84396  -10.57438    0.05342
       O    -1.37649  -11.32028   -0.45944
      H1    -0.63865  -10.86273   -0.82756

