45
frame 6 | Written by MDAnalysis XYZWriter (release 2.4.3)
       H   -17.20036   11.53995   -9.45491
       O   -17.26918   10.68375   -8.93050
      H1   -18.21051   10.61681   -8.71686
       H   -13.05782   14.00837  -10.35709
       O   -13.32951   13.70830   -9.44040
      H1   -14.11977   13.14534   -9.55363
       H   -15.38880   13.39477  -13.20945
       O   -16.21609   13.66858  -12.83374
      H1   -16.05588   14.40170  -12.23038
       H   -12.98535   13.19641   -4.94270
       O   -13.18885   13.80610   -5.66219
      H1   -12.35073   13.83364   -6.19252
       H   -16.35467   13.14529  -10.96417
       O   -15.98208   12.82221  -10.11894
      H1   -16.44417   13.18378   -9.30978
       H   -14.43700   15.61874  -12.74301
       O   -14.16491   15.56806  -11.77942
      H1   -13.31023   15.14276  -11.87914
       H   -14.14340   16.68796   -7.16022
       O   -13.50403   16.59079   -6.41550
      H1   -13.83713   15.86076   -5.90463
       H   -19.33765   13.99626  -11.89850
       O   -18.78183   13.97582  -11.08806
      H1   -18.79515   14.90172  -10.78970
       H   -18.70285   16.11263   -5.48217
       O   -18.45119   16.40660   -6.35366
      H1   -17.84719   15.74170   -6.65781
       H   -16.43939   18.56703  -10.29791
       O   -16.68143   18.28906   -9.42444
      H1   -16.40135   19.00057   -8.85484
       H   -12.08465   13.80531   -8.13651
       O   -11.23794   13.99421   -7.67757
      H1   -11.00952   14.90076   -7.84680
       H   -18.31382   17.45116   -9.49529
       O   -18.88748   16.69794   -9.52153
      H1   -19.13346   16.53408   -8.60827
       H   -15.59019   16.67512   -9.42414
       O   -15.01756   16.22154   -8.81986
      H1   -14.50988   15.53021   -9.17892
       H   -15.57904   11.96898   -6.10031
       O   -15.73553   12.89821   -5.93398
      H1   -14.88978   13.32786   -6.04564
       H   -16.06972   15.00028   -8.17123
       O   -16.78584   14.42130   -7.86285
      H1   -16.29712   13.91968   -7.12154

