45
frame 6 | Written by MDAnalysis XYZWriter (release 2.4.3)
       H    14.41690  -12.84245    3.62497
       O    13.66480  -12.74369    3.06553
      H1    13.00526  -13.43856    3.30069
       H    16.97648  -15.15542    0.55106
       O    17.38741  -14.33869    0.27570
      H1    17.23559  -14.24369   -0.68724
       H    11.37096  -14.13836    2.52609
       O    11.61614  -14.37131    3.44452
      H1    11.48438  -15.30452    3.49113
       H    14.68752  -12.65352    1.50073
       O    15.07321  -12.93223    0.67752
      H1    15.95969  -13.31908    0.76408
       H    15.67794  -12.08149    5.29435
       O    15.94859  -12.11914    4.36934
      H1    16.85597  -11.85122    4.13765
       H    15.25611  -13.03881    8.38695
       O    15.61319  -12.80983    7.49463
      H1    16.52123  -13.16768    7.46180
       H    12.59612  -14.63024    9.31362
       O    12.39145  -14.91983    8.40650
      H1    12.80471  -14.31157    7.75309
       H    15.99329  -15.83339    4.39476
       O    15.70493  -15.52097    3.50481
      H1    15.97880  -14.53469    3.52530
       H    13.15243  -16.59954    8.18739
       O    13.67769  -17.34814    7.85102
      H1    13.70388  -17.94673    8.57568
       H    19.35032  -18.85082    5.68553
       O    18.70942  -18.35698    5.16201
      H1    19.07490  -18.51228    4.26991
       H    14.71667  -18.19368    4.68342
       O    14.59491  -18.87559    5.38318
      H1    14.20932  -18.38438    6.14162
       H    17.17427  -17.16632    1.27311
       O    16.23258  -16.79133    1.31801
      H1    16.13035  -16.37570    2.16167
       H    17.19007  -16.08723    6.62110
       O    17.54560  -15.96786    5.75308
      H1    18.01367  -16.79940    5.67391
       H    13.54480  -17.90272    2.96163
       O    14.32590  -18.30764    2.72889
      H1    14.85038  -17.73559    2.12075
       H    16.35787  -15.91536    8.97091
       O    16.40891  -16.49342    8.24320
      H1    15.52974  -16.86158    8.06381

