45
frame 5 | Written by MDAnalysis XYZWriter (release 2.4.3)
       H    -4.76158   14.55010  -15.52600
       O    -3.90662   14.99115  -15.70955
      H1    -4.00382   15.27321  -16.62153
       H    -3.33906   16.99173  -12.86014
       O    -3.02455   17.79172  -13.27393
      H1    -3.10408   17.64788  -14.22218
       H    -3.61428   16.64729  -18.81491
       O    -3.47622   15.87480  -18.25603
      H1    -4.07969   15.16816  -18.47698
       H    -6.47419   11.89195  -16.45793
       O    -6.13436   11.42917  -15.69821
      H1    -6.48825   10.53229  -15.59532
       H    -1.70886   17.32875  -15.97264
       O    -2.54132   17.79028  -15.87517
      H1    -3.12602   17.35132  -16.51610
       H    -4.06512    9.88206  -13.75897
       O    -3.89744   10.84440  -13.71118
      H1    -4.67342   11.21682  -14.16285
       H    -5.56390   15.93226  -11.99328
       O    -6.28686   16.47415  -12.41471
      H1    -5.80615   16.80138  -13.20798
       H    -8.01293   16.57952  -15.80139
       O    -8.52184   15.78216  -15.66679
      H1    -7.94722   15.18878  -15.03803
       H    -7.64388   12.98655  -18.26157
       O    -6.96637   13.38646  -17.62706
      H1    -7.34837   14.16443  -17.29917
       H    -1.43569   12.95176  -15.75017
       O    -1.96588   13.08062  -16.56988
      H1    -2.61771   13.72722  -16.31639
       H    -6.30141   13.55214  -13.55850
       O    -6.25607   14.40424  -14.01945
      H1    -6.50288   15.12519  -13.43157
       H    -3.06542   14.83851  -11.92821
       O    -3.91259   15.23479  -11.73513
      H1    -3.79473   15.43228  -10.76991
       H    -8.09903   12.17114  -15.00579
       O    -8.99061   12.49059  -15.10285
      H1    -9.36435   12.57877  -14.24823
       H    -3.26747   10.92627  -17.01277
       O    -4.01410   10.30960  -17.04504
      H1    -4.75204   10.81222  -16.70847
       H    -5.71160   14.99307  -19.88106
       O    -5.33723   14.17472  -19.55584
      H1    -6.07512   13.87484  -18.97107

