45
frame 6 | Written by MDAnalysis XYZWriter (release 2.4.3)
       H    11.42771    3.46857   16.97160
       O    10.48848    3.55165   17.26796
      H1    10.36401    2.77798   17.85465
       H     8.56055    3.39000   16.83520
       O     7.66119    3.04688   16.86438
      H1     7.22436    3.22812   15.98780
       H     5.16825    5.52341   18.71854
       O     4.94534    6.49457   18.72637
      H1     5.18012    6.76634   17.84758
       H    10.92482    2.50900   14.03432
       O    11.46304    1.69237   14.13326
      H1    12.14722    1.69044   13.49387
       H     4.34028    2.88153   14.79040
       O     4.44578    1.95777   14.62404
      H1     3.71508    1.62238   15.19336
       H     5.06406    5.41289   15.00749
       O     5.24793    4.81997   14.27560
      H1     4.47027    4.91241   13.65798
       H     9.03554    0.44904   13.65557
       O     8.96980    0.15177   12.73361
      H1     8.07008    0.31658   12.50570
       H     7.01690    2.14564   13.86720
       O     7.34655    3.03148   13.98781
      H1     6.56129    3.58350   14.00059
       H     8.80462    5.32923   13.99383
       O     8.10191    5.97037   13.83298
      H1     7.22557    5.67179   13.99587
       H     6.29718   -0.63555   12.32617
       O     6.25462    0.25958   12.53343
      H1     5.69407    0.35372   13.29986
       H     5.92246    3.40520   17.89639
       O     5.62315    3.61880   18.78145
      H1     6.41385    3.58295   19.34860
       H    10.53009    4.18847   12.83791
       O     9.99586    3.93063   13.64893
      H1     9.17787    3.48526   13.36515
       H     9.25175    2.04464   19.26391
       O     9.86844    1.37753   18.97706
      H1    10.59196    1.41679   19.60975
       H     8.19364    0.10316   18.56080
       O     7.46089   -0.55865   18.48757
      H1     7.07986   -0.44512   17.57639
       H     8.76093    1.25819   15.85483
       O     9.29487    0.61563   15.39291
      H1    10.12339    1.08131   15.13257

