45
frame 5 | Written by MDAnalysis XYZWriter (release 2.4.3)
       H    12.24008  -14.87250   -2.08655
       O    12.19579  -15.17384   -3.01578
      H1    12.88376  -15.78951   -3.10326
       H    13.63322  -17.54370   -4.92599
       O    12.84465  -17.68984   -4.33806
      H1    12.10133  -17.26865   -4.85764
       H     8.90684  -16.86320    0.17532
       O     9.41736  -16.42757    0.85136
      H1     9.05027  -16.73141    1.66525
       H     6.87825  -14.10201   -2.08738
       O     6.70538  -14.28367   -3.03814
      H1     7.53516  -14.09615   -3.51492
       H     9.15120  -17.41683   -1.77143
       O     8.26458  -17.63676   -1.42759
      H1     7.67981  -17.32497   -2.09283
       H    12.72595  -13.24029   -0.35300
       O    11.87425  -13.65384   -0.58810
      H1    11.97609  -14.55283   -0.20716
       H     8.25793  -15.01121    1.44059
       O     7.34720  -14.59886    1.43581
      H1     7.26011  -13.90403    0.67800
       H     8.10134  -19.39161   -5.81497
       O     8.69273  -18.78766   -6.34553
      H1     8.89045  -19.20064   -7.22025
       H     6.43977  -16.05020   -3.12801
       O     6.29148  -16.96694   -2.91245
      H1     6.00610  -17.40907   -3.69695
       H     9.53621  -17.14323   -6.17425
       O    10.13900  -16.46062   -5.87572
      H1     9.58625  -15.66841   -5.70461
       H     5.50327  -18.93399   -0.52475
       O     5.96277  -18.26261    0.03879
      H1     6.57889  -17.84710   -0.56718
       H    11.41492  -18.28417   -2.50191
       O    10.95764  -17.57372   -2.10055
      H1    11.32442  -16.76668   -2.48717
       H    11.98701  -16.78180   -0.54197
       O    12.05996  -16.13515    0.14192
      H1    11.17648  -16.05953    0.59125
       H     3.47208  -16.75023   -1.52865
       O     3.75686  -16.51819   -2.45947
      H1     4.72292  -16.60756   -2.61307
       H     8.15286  -14.41059   -5.39879
       O     8.92575  -14.02649   -4.89644
      H1     9.24215  -13.16434   -5.31062

