45
frame 5 | Written by MDAnalysis XYZWriter (release 2.4.3)
       H    16.23001   -1.11227   13.43347
       O    16.43777   -1.70678   14.16416
      H1    16.08638   -1.24002   14.92043
       H    15.84949   -1.58916   18.55807
       O    15.84265   -0.64288   18.69934
      H1    15.00853   -0.40271   19.16063
       H    16.52380    0.84939   15.87205
       O    15.91840    0.15060   16.19827
      H1    16.11095    0.04186   17.15654
       H    13.48601    0.22326   16.15219
       O    12.71658   -0.32992   15.99546
      H1    12.60823   -0.35479   15.02775
       H    12.93947   -5.28235   19.69240
       O    13.55898   -5.57857   19.05149
      H1    13.37441   -4.93107   18.34972
       H    19.80698   -2.37441   18.65976
       O    19.86636   -1.45297   18.45654
      H1    19.14453   -0.99989   18.92198
       H    16.63275   -4.01681   18.13177
       O    16.53547   -3.33473   18.75156
      H1    17.31402   -3.29370   19.34434
       H    18.90429   -4.17299   14.84688
       O    17.96435   -4.00772   15.01096
      H1    17.82459   -3.11331   14.64248
       H    15.32105    2.34593   18.30466
       O    15.91776    2.79391   18.93758
      H1    16.78679    2.37493   18.84583
       H    11.84864   -2.78157   17.31659
       O    12.62559   -2.23769   17.75965
      H1    12.78964   -1.52990   17.10428
       H    19.30278    2.65645   18.54541
       O    18.77563    1.85631   18.31751
      H1    18.86300    1.21156   19.06378
       H    13.56008   -3.59540   16.25860
       O    13.82839   -4.50296   16.29029
      H1    14.78131   -4.50808   16.45600
       H    12.92526    1.85112   16.82736
       O    13.74181    2.19459   17.24337
      H1    13.75538    3.08985   16.93894
       H    19.66549   -0.33075   14.96790
       O    19.20407   -1.13494   14.70572
      H1    18.27492   -0.91625   14.57486
       H    18.12888    1.87253   16.55193
       O    17.65686    2.22749   15.82851
      H1    17.18303    2.98458   16.16297

