45
frame 5 | Written by MDAnalysis XYZWriter (release 2.4.3)
       H     6.87737    4.21615   10.95877
       O     6.11005    3.61056   11.05271
      H1     6.46607    2.78468   11.35172
       H     6.58253    3.28688    4.92959
       O     7.28173    2.67863    4.60366
      H1     7.62890    2.21401    5.38593
       H     2.73138    5.82149    6.71299
       O     3.30008    5.87212    5.95679
      H1     3.99424    5.21932    5.90957
       H     6.13594    5.01849    5.22546
       O     5.55864    4.38265    5.69238
      H1     5.82359    4.67233    6.58177
       H     9.76098    6.80326    4.99093
       O     9.28601    5.99029    5.15647
      H1     9.95708    5.23128    5.04811
       H     7.28323    6.27644    4.10419
       O     6.71783    5.67241    3.64451
      H1     7.16490    5.40280    2.83214
       H     8.97265    7.05149    7.05568
       O     8.35895    7.43209    7.69738
      H1     8.45373    8.37726    7.60451
       H     6.86911    6.21622    7.73825
       O     6.30065    5.47675    8.06518
      H1     5.49153    5.85948    8.44946
       H     6.01427    1.82488    8.15567
       O     5.36756    2.31162    8.69852
      H1     5.87028    2.83930    9.33908
       H     8.74833   10.80401    7.81302
       O     7.94901   10.29276    8.06511
      H1     7.90863   10.42198    9.02499
       H     3.90005    5.69652    9.94091
       O     3.93973    6.49506    9.38507
      H1     3.91094    7.24719    9.98800
       H     4.12036    2.46692    7.05350
       O     3.60576    2.58578    6.25073
      H1     4.04420    3.29543    5.83271
       H     8.80724    3.53880   10.13410
       O     9.58173    2.97028   10.19448
      H1     9.26869    2.12886   10.44276
       H     4.13006    7.43289    4.73938
       O     4.44366    7.78486    3.90230
      H1     4.77511    6.99248    3.42093
       H     7.41549    5.51510    9.42606
       O     8.02319    5.35087   10.14925
      H1     8.44434    6.20886   10.31536

