45
frame 6 | Written by MDAnalysis XYZWriter (release 2.4.3)
       H    -2.09908   14.11191    3.39525
       O    -2.17675   15.05120    3.41232
      H1    -2.54961   15.27216    2.56072
       H    -6.54337   13.56920    7.96043
       O    -6.34443   14.08681    8.76209
      H1    -7.08476   14.67446    8.96556
       H    -3.69694    8.38687    1.67898
       O    -4.03808    8.93547    2.42129
      H1    -4.43120    9.66884    1.97522
       H    -6.35745    7.51983    4.76217
       O    -6.20696    7.85239    3.83683
      H1    -5.25461    8.13501    3.79568
       H    -4.64992   14.51757    2.31834
       O    -4.37210   15.11816    1.62001
      H1    -4.91130   15.87510    1.83592
       H    -4.47353   12.12364    3.67098
       O    -4.77382   12.42388    2.79887
      H1    -5.68500   12.19562    2.69778
       H    -1.52256   14.12715    6.82174
       O    -0.76225   14.22792    7.42921
      H1    -0.02357   14.07588    6.82494
       H    -0.73078    9.38866    2.95981
       O    -1.52819    9.94867    2.68625
      H1    -2.27222    9.41837    2.96212
       H    -1.06833   11.76903    4.89569
       O    -0.94707   12.32333    4.13278
      H1    -1.19501   11.70394    3.45142
       H    -4.53217    9.31742    6.41310
       O    -5.26551    9.54722    7.08662
      H1    -6.04406    9.21465    6.56990
       H    -1.41144   10.31948    6.95835
       O    -1.42649   10.62096    6.08866
      H1    -2.28909   11.00132    6.02286
       H    -6.12508   11.35470    7.12187
       O    -6.52476   12.19245    6.84101
      H1    -7.46447   12.05564    6.97416
       H    -3.93575   15.10903    6.21775
       O    -3.11374   14.67096    5.95457
      H1    -2.95536   15.04770    5.07396
       H    -2.32054    7.89481    5.92812
       O    -3.01701    8.44360    5.57959
      H1    -2.57345    9.27224    5.27370
       H    -3.65726   12.95681    5.48578
       O    -3.82907   11.99720    5.43991
      H1    -4.74649   11.98271    5.69689

