45
frame 6 | Written by MDAnalysis XYZWriter (release 2.4.3)
       H    17.27969  -18.66540  -11.86216
       O    17.91935  -17.90152  -11.96960
      H1    17.39435  -17.10989  -11.97246
       H    11.62339  -19.18163  -16.44830
       O    11.33386  -19.06161  -15.59494
      H1    11.25085  -18.12336  -15.52366
       H    13.46213  -17.39485  -14.77209
       O    14.28847  -17.65868  -15.24708
      H1    14.01004  -18.45667  -15.65169
       H    12.80667  -20.09658   -8.33293
       O    13.38415  -19.61034   -8.94285
      H1    12.87528  -18.75300   -9.01062
       H    13.57046  -14.02261  -11.33813
       O    13.05087  -14.19409  -10.54229
      H1    13.15123  -15.13633  -10.34705
       H    13.82326  -19.60436  -10.73475
       O    14.15123  -19.43819  -11.61236
      H1    13.41918  -19.37714  -12.21055
       H    13.37719  -16.79098   -8.73444
       O    12.49809  -17.13869   -8.94904
      H1    11.98297  -16.88640   -8.21228
       H    15.33576  -16.65623   -9.98206
       O    15.11348  -16.89996   -9.07566
      H1    15.43030  -17.80659   -8.96907
       H    10.98717  -15.98552  -15.18309
       O    10.29955  -16.34314  -15.85211
      H1    10.48218  -15.95445  -16.70301
       H    11.68152  -16.29081  -13.41685
       O    12.28919  -16.05350  -14.12802
      H1    12.65797  -15.20039  -13.82643
       H     8.70362  -18.93774  -12.51509
       O     8.54021  -18.09244  -12.06594
      H1     7.94861  -18.37265  -11.38890
       H    15.06042  -16.26070  -12.79621
       O    14.93244  -16.54873  -11.86012
      H1    14.87412  -17.50751  -11.91177
       H    14.61219  -14.59862  -16.33690
       O    14.15062  -15.32843  -16.79603
      H1    14.43180  -16.10950  -16.23259
       H    16.54707  -19.66031   -7.82738
       O    15.81016  -19.05545   -7.62895
      H1    15.11107  -19.56461   -7.16488
       H    11.35744  -17.05200  -10.34165
       O    10.75701  -16.74663  -11.06940
      H1     9.93594  -17.32620  -11.12869

