45
frame 6 | Written by MDAnalysis XYZWriter (release 2.4.3)
       H     3.14904    5.87537  -19.51404
       O     2.25699    5.54800  -19.46439
      H1     1.69875    6.29728  -19.06971
       H     7.25681    8.42099  -16.06581
       O     8.06126    8.83917  -16.34749
      H1     7.99274    8.95659  -17.28847
       H     3.80600    8.77111  -16.85475
       O     4.02290    8.06013  -17.53819
      H1     4.76611    8.47097  -18.02846
       H     2.43865    8.07927  -18.50735
       O     1.51336    8.00386  -18.77455
      H1     1.10938    7.79512  -17.86806
       H     4.62114    5.46098  -12.95010
       O     4.72595    4.57021  -12.52304
      H1     3.85412    4.47326  -12.07733
       H     2.19905    6.36341  -14.07284
       O     1.30649    5.99927  -14.33611
      H1     1.31743    5.01770  -14.61682
       H     1.87655    8.91807  -15.62271
       O     2.72392    9.35507  -15.59235
      H1     3.00780    9.20667  -14.66706
       H     3.82471   12.44741  -16.71392
       O     3.65772   12.11837  -15.83648
      H1     3.19518   11.25670  -15.96162
       H     6.91876    4.96980  -16.45940
       O     6.21008    4.52761  -16.00007
      H1     6.71918    4.30129  -15.19483
       H     4.97069    3.96508  -16.91808
       O     4.26307    3.50462  -17.48338
      H1     3.62038    4.15872  -17.83888
       H     4.86927   11.17439  -14.96710
       O     5.08862   10.34358  -14.39739
      H1     5.88711   10.56481  -13.98341
       H     4.96522    7.49578  -16.07849
       O     5.57647    7.59006  -15.33218
      H1     5.53907    8.50439  -15.10157
       H     6.94810    6.79403  -11.95382
       O     6.57613    7.55932  -12.42490
      H1     6.00917    7.99314  -11.74912
       H     6.45421    7.39254  -19.78706
       O     7.00001    7.67929  -19.05055
      H1     7.48845    6.86635  -18.77154
       H     4.46611    7.39143  -14.11481
       O     3.79027    7.04128  -13.52094
      H1     3.62894    7.76357  -12.94264

