45
frame 6 | Written by MDAnalysis XYZWriter (release 2.4.3)
       H     9.02718  -11.99486    9.55238
       O     9.22239  -12.86218    9.13777
      H1     8.61725  -13.46708    9.64427
       H    12.76995   -8.72154    6.31703
       O    13.38089   -9.56414    6.35082
      H1    14.25812   -9.19078    6.26258
       H    18.32275  -11.19608   10.48711
       O    17.57604  -11.78163   10.20990
      H1    17.82914  -12.04952    9.33717
       H    14.07827  -13.02951   10.31045
       O    14.06714  -12.11334    9.98631
      H1    13.24007  -11.97182    9.56846
       H    13.76576   -7.76216    8.81401
       O    14.06397   -8.72214    8.91656
      H1    13.53593   -9.21939    8.30233
       H    11.26046  -11.91550   11.80582
       O    11.41438  -10.99562   12.09757
      H1    12.32463  -10.78436   12.19723
       H    10.78284   -9.19334   11.35954
       O    10.08844   -8.61605   11.00476
      H1    10.50690   -7.74190   10.76494
       H    15.25611  -13.03881    8.38695
       O    15.61319  -12.80983    7.49463
      H1    16.52123  -13.16768    7.46180
       H    14.01364  -13.85885   13.87319
       O    13.37632  -13.37640   13.42591
      H1    13.68793  -12.49765   13.42781
       H    12.59612  -14.63024    9.31362
       O    12.39145  -14.91983    8.40650
      H1    12.80471  -14.31157    7.75309
       H    14.26698   -9.74999   13.32679
       O    14.09249  -10.57635   12.84197
      H1    14.38393  -10.30977   11.92326
       H    13.25062  -15.56797   11.14133
       O    13.20971  -14.56260   10.94468
      H1    12.91091  -14.27165   11.78944
       H    15.83519  -10.73209   10.37934
       O    15.69720   -9.80047   10.73439
      H1    15.04449   -9.49916   10.05003
       H    11.22098  -12.23156    7.93289
       O    12.03144  -11.66458    7.97624
      H1    12.22953  -11.33430    7.10890
       H    10.17209   -9.09922    9.40347
       O    10.24704   -9.37888    8.45649
      H1    10.97874  -10.03012    8.48258

