45
frame 6 | Written by MDAnalysis XYZWriter (release 2.4.3)
       H     3.39926   -2.43253   12.74747
       O     3.51596   -2.99501   11.95370
      H1     2.87501   -2.64424   11.33773
       H     1.78812   -7.23686   13.72348
       O     2.09294   -6.73382   14.45197
      H1     3.02206   -6.55369   14.22725
       H    -1.50090   -1.00053   13.97951
       O    -2.39907   -0.99065   13.64430
      H1    -2.80054   -0.14791   13.92454
       H     0.13519   -8.80678   12.44851
       O     0.54401   -7.98052   12.42313
      H1     0.13575   -7.41859   11.75851
       H    -0.96462   -3.93864   14.54698
       O    -1.90263   -3.67139   14.84324
      H1    -1.72981   -2.86515   15.23254
       H    -2.06679   -4.88850   11.13597
       O    -1.72335   -5.17901   12.04506
      H1    -2.38024   -4.89862   12.64682
       H    -1.50281   -6.33608   15.60017
       O    -0.78782   -6.87562   15.84186
      H1    -0.04177   -6.79648   15.23988
       H     3.22565   -0.78220   13.59037
       O     3.54431   -1.31447   14.31660
      H1     4.37948   -0.96480   14.60279
       H     3.02569   -5.42709   10.36830
       O     2.08945   -5.64688   10.26968
      H1     1.76342   -5.00795   10.90211
       H     0.16499   -1.94448   14.83344
       O     0.24776   -0.98862   14.94300
      H1     0.58176   -0.83787   15.83457
       H     1.08540   -4.15500   13.44056
       O     0.85108   -4.33784   14.38092
      H1     1.15181   -5.27919   14.47870
       H    -0.39843   -3.98986   17.96118
       O     0.15576   -4.64352   17.47681
      H1    -0.29177   -5.30003   16.91170
       H    -0.19504   -4.17999   11.82768
       O     0.65713   -3.60439   11.75575
      H1     0.25688   -2.81967   11.37234
       H     1.76820   -3.34036   16.78817
       O     2.41766   -2.67569   17.00392
      H1     2.65208   -2.37786   16.07850
       H     2.40776   -8.16444   15.95457
       O     2.76629   -8.19986   16.82720
      H1     3.43003   -7.53008   16.93072

