45
frame 6 | Written by MDAnalysis XYZWriter (release 2.4.3)
       H    -5.65303   15.57623   14.02643
       O    -6.32544   15.87689   14.59022
      H1    -7.07319   15.56081   14.05458
       H    -4.36308   13.35769   19.23007
       O    -3.98427   12.65803   18.64950
      H1    -3.43574   12.12837   19.26900
       H    -5.87437   11.72133   12.93866
       O    -6.66036   11.60946   12.36600
      H1    -6.30808   11.68483   11.44131
       H    -0.80749   13.24680   17.63348
       O    -1.43616   12.55283   17.28497
      H1    -2.15900   12.56476   17.96670
       H    -0.46407   14.81895   15.27188
       O     0.17225   15.43083   15.67968
      H1    -0.30604   16.26147   15.83889
       H    -1.53706   12.53699   14.84721
       O    -0.88177   13.03189   14.36303
      H1    -0.71518   12.50564   13.57810
       H    -6.22639   15.09162   16.36197
       O    -5.47064   15.04645   16.97436
      H1    -4.68149   14.87758   16.45256
       H    -3.53104   15.52495   12.28136
       O    -3.68958   15.97043   13.11117
      H1    -3.06507   16.70815   13.05113
       H    -2.95706   11.04669   15.52830
       O    -2.32499   10.28432   15.57387
      H1    -1.60227   10.53507   16.14656
       H    -2.40471   18.19943   16.17351
       O    -2.27633   17.24597   16.28286
      H1    -2.03131   17.16042   17.23456
       H    -4.72911   12.58294   14.49817
       O    -4.81140   11.61198   14.37142
      H1    -5.21696   11.26919   15.16714
       H    -5.83331   17.28258   16.57723
       O    -6.42217   17.99408   16.94871
      H1    -5.80010   18.65997   17.40536
       H    -2.62726   14.01084   16.00598
       O    -3.40094   14.19141   15.37013
      H1    -3.07074   14.90507   14.81439
       H    -5.44158   11.88489   17.48094
       O    -6.09806   11.40654   16.97368
      H1    -6.71942   12.10793   16.71079
       H    -5.31828   15.26959   19.00721
       O    -4.90506   14.94866   19.82044
      H1    -5.61418   14.50897   20.31378

