45
frame 0 | Written by MDAnalysis XYZWriter (release 2.4.3)
       H    15.80755    5.16525   17.75606
       O    15.24307    4.73528   17.03912
      H1    14.78623    5.44281   16.56439
       H    11.99302    4.15516   17.22013
       O    11.37624    4.87770   17.49618
      H1    10.64787    4.45208   17.96420
       H    14.35555    3.35848   17.16482
       O    13.76869    2.61822   17.03168
      H1    14.05840    2.15269   16.23323
       H    13.08893    5.99450   14.25387
       O    12.59715    5.57145   13.57733
      H1    12.02233    4.85124   13.84873
       H    19.02088    8.04988   17.36753
       O    18.27479    7.62787   16.99063
      H1    17.55054    8.30202   16.82674
       H    14.29996    1.39462   18.47019
       O    14.76196    0.88229   19.10720
      H1    14.07802    0.24169   19.35114
       H    18.50774    6.85544   13.51398
       O    18.63742    7.77990   13.63902
      H1    19.03343    7.94064   14.49337
       H    17.26759    5.78880   19.47218
       O    16.68701    6.21174   18.83997
      H1    17.30899    6.69258   18.31517
       H    16.87198   10.67698   17.67419
       O    16.63144    9.79704   17.28850
      H1    15.94049   10.05650   16.67070
       H    17.77002   12.40011   19.22592
       O    17.89729   11.82010   18.47022
      H1    18.39504   11.05422   18.76452
       H    18.96699    4.06879   15.69031
       O    19.77006    4.62375   15.98317
      H1    19.49029    5.50032   16.31640
       H    16.70259    3.25898   14.26105
       O    17.30568    3.41025   15.01426
      H1    16.65949    3.58984   15.70517
       H    14.57662    7.11445   14.91488
       O    13.97513    6.76799   15.55564
      H1    13.80302    7.60316   16.04343
       H    15.61769    9.91615   18.67153
       O    15.07083   10.05966   19.42513
      H1    15.53570   10.33828   20.23906
       H    12.52112    9.48133   17.05086
       O    13.11922    8.81162   17.32872
      H1    13.59140    9.13015   18.09473

