45
frame 6 | Written by MDAnalysis XYZWriter (release 2.4.3)
       H    16.97648  -15.15542    0.55106
       O    17.38741  -14.33869    0.27570
      H1    17.23559  -14.24369   -0.68724
       H    18.89189  -12.43361    7.13231
       O    18.61858  -13.03824    7.86208
      H1    19.34903  -13.51224    8.25563
       H    19.03281  -18.95018    2.11457
       O    19.44866  -19.45992    2.81248
      H1    18.69529  -20.02087    3.00617
       H    15.27528  -18.65227   -1.15254
       O    15.74423  -17.83065   -1.26328
      H1    15.79840  -17.44125   -0.35777
       H    16.83880  -17.75132    9.07595
       O    17.05235  -18.64880    9.46517
      H1    16.65954  -18.72853   10.36432
       H    15.99329  -15.83339    4.39476
       O    15.70493  -15.52097    3.50481
      H1    15.97880  -14.53469    3.52530
       H    18.75637  -18.04288   10.08909
       O    19.52765  -17.78400   10.62488
      H1    19.26039  -17.79965   11.55024
       H    19.35032  -18.85082    5.68553
       O    18.70942  -18.35698    5.16201
      H1    19.07490  -18.51228    4.26991
       H    14.71667  -18.19368    4.68342
       O    14.59491  -18.87559    5.38318
      H1    14.20932  -18.38438    6.14162
       H    17.17427  -17.16632    1.27311
       O    16.23258  -16.79133    1.31801
      H1    16.13035  -16.37570    2.16167
       H    19.62879  -15.97503    9.90479
       O    19.80354  -15.02180    9.93128
      H1    19.00260  -14.50892    9.84600
       H    17.19007  -16.08723    6.62110
       O    17.54560  -15.96786    5.75308
      H1    18.01367  -16.79940    5.67391
       H    13.54480  -17.90272    2.96163
       O    14.32590  -18.30764    2.72889
      H1    14.85038  -17.73559    2.12075
       H    19.42564  -17.67921    0.10105
       O    18.59132  -17.85696    0.62389
      H1    18.21253  -18.68378    0.22052
       H    16.35787  -15.91536    8.97091
       O    16.40891  -16.49342    8.24320
      H1    15.52974  -16.86158    8.06381

