45
frame 5 | Written by MDAnalysis XYZWriter (release 2.4.3)
       H   -10.47926  -11.86046   -9.88064
       O   -10.52589  -11.60460   -8.98100
      H1   -10.28992  -12.41554   -8.46265
       H   -10.80800  -14.93281   -7.31960
       O   -10.52326  -14.07064   -7.36112
      H1   -10.12591  -13.85918   -6.48266
       H   -12.45320  -10.18904  -10.40524
       O   -12.98788   -9.38966  -10.55170
      H1   -13.35221   -9.21733   -9.69202
       H   -14.55869   -8.10642   -6.17087
       O   -13.99045   -8.63573   -5.58369
      H1   -13.19460   -8.58254   -6.14997
       H   -12.97606   -6.96159   -8.61153
       O   -13.03570   -7.21804   -7.65257
      H1   -12.08747   -7.55103   -7.42168
       H   -12.03413  -10.46631   -5.85648
       O   -11.51307  -10.22922   -5.02474
      H1   -12.12813  -10.34345   -4.27102
       H    -9.99525  -13.97416   -4.68421
       O    -9.57830  -13.26920   -5.09003
      H1   -10.17971  -12.53368   -4.93325
       H   -10.90581   -8.91161   -5.87451
       O   -10.89678   -8.07327   -6.41946
      H1   -10.04895   -7.62885   -6.29283
       H   -13.99866  -10.08313   -3.54749
       O   -13.36450  -10.57063   -2.99951
      H1   -13.91177  -11.39846   -2.84933
       H   -13.65177   -7.48538   -4.29306
       O   -13.68871   -6.68604   -3.73324
      H1   -12.82505   -6.33275   -3.67791
       H   -14.20848  -13.04561   -4.86271
       O   -13.34697  -13.26969   -5.18554
      H1   -13.09129  -12.52701   -5.72447
       H   -11.80189  -10.80386   -8.04901
       O   -12.48789  -10.35813   -7.54440
      H1   -13.23947  -10.95903   -7.48245
       H   -14.68895  -12.16359   -8.35793
       O   -14.61661  -11.82521   -7.44222
      H1   -15.47690  -11.43994   -7.38178
       H    -7.93403   -9.02890   -8.77363
       O    -8.24973   -9.85524   -8.31384
      H1    -9.01820   -9.99825   -8.86248
       H   -13.19607  -14.09720   -9.62755
       O   -14.06237  -13.92255   -9.32451
      H1   -14.07788  -14.41933   -8.49343

