45
frame 6 | Written by MDAnalysis XYZWriter (release 2.4.3)
       H    -0.52863    9.04429   -5.36249
       O    -0.42048    8.31013   -5.99573
      H1    -1.23325    8.44820   -6.54429
       H    -4.20209    7.36806   -5.52763
       O    -4.39600    8.32291   -5.47733
      H1    -5.34682    8.42835   -5.55196
       H    -4.74241    9.66144   -3.74298
       O    -4.68575   10.18688   -2.91343
      H1    -5.24446    9.64671   -2.30095
       H     1.22344    9.02825  -10.05639
       O     0.84623    8.15448  -10.21060
      H1     0.75478    7.85511   -9.27938
       H    -2.10949    6.61085   -3.14188
       O    -1.33925    6.01137   -3.04347
      H1    -1.56447    5.64902   -2.17570
       H    -0.06225    5.67846   -7.90400
       O     0.17267    6.58446   -8.02804
      H1     0.17789    7.01694   -7.17962
       H     1.12327   12.31880   -4.64899
       O     1.36134   12.26357   -5.56722
      H1     0.63172   11.95986   -6.09327
       H    -0.40322   10.38608   -7.03758
       O    -0.21951   11.06578   -7.69847
      H1     0.61797   10.92191   -8.14827
       H    -4.64148    4.94447   -5.81662
       O    -4.16724    5.47946   -5.12002
      H1    -3.45529    4.84596   -4.89934
       H    -1.81521    6.97310   -9.14047
       O    -2.50676    7.48375   -9.53435
      H1    -2.41508    8.26990   -9.06243
       H    -2.17332   10.38852   -7.44056
       O    -2.50640    9.49170   -7.21487
      H1    -3.28107    9.58066   -6.70623
       H     2.12668    6.23556   -4.24706
       O     1.51967    6.04545   -3.50965
      H1     0.68674    6.21657   -3.96321
       H    -5.14868    7.33423   -9.61679
       O    -5.64325    7.95438   -9.00982
      H1    -4.87925    8.45508   -8.67052
       H     3.59620    5.66683   -8.22303
       O     3.04877    6.48872   -8.20013
      H1     2.12573    6.27891   -8.37022
       H     0.42125    9.64604   -3.09196
       O    -0.51715    9.35591   -3.16494
      H1    -1.01870   10.19667   -2.99430

