45
frame 7 | Written by MDAnalysis XYZWriter (release 2.4.3)
       H   -10.30045  -16.90311   -4.16354
       O    -9.34882  -16.91675   -4.21085
      H1    -9.20993  -16.99778   -3.26493
       H    -4.24123  -17.55638   -3.56299
       O    -3.51827  -17.99766   -3.95733
      H1    -3.17521  -17.50121   -4.71295
       H    -7.30158  -18.79709   -5.59907
       O    -6.53786  -18.15523   -5.52075
      H1    -6.34264  -17.78958   -6.42503
       H    -5.39400  -16.71689   -7.77715
       O    -6.06831  -17.20838   -8.25327
      H1    -6.76874  -16.57046   -8.21877
       H    -3.74570  -12.43859   -3.68994
       O    -4.05762  -13.35144   -3.86259
      H1    -4.72492  -13.24487   -4.52914
       H    -8.68813  -15.18866   -4.51800
       O    -8.63350  -14.29711   -4.94181
      H1    -9.26245  -13.76687   -4.37849
       H    -3.75443  -14.64518   -6.97800
       O    -4.47910  -15.33503   -6.84098
      H1    -5.18224  -14.79965   -6.45926
       H    -6.29713  -17.34703   -4.06898
       O    -6.23290  -17.07470   -3.07171
      H1    -6.25788  -16.13531   -2.99348
       H    -2.80568  -16.31769   -6.41464
       O    -2.11127  -16.47659   -5.81065
      H1    -1.45553  -16.91871   -6.31766
       H    -5.13116  -14.05502   -2.41447
       O    -6.02484  -14.32247   -2.04636
      H1    -5.85445  -14.64693   -1.16659
       H    -7.47438  -15.63538    0.27885
       O    -6.89227  -15.17122    0.91910
      H1    -7.33924  -14.42770    1.36700
       H    -2.07168  -18.27375   -2.75713
       O    -1.52282  -18.37031   -1.93016
      H1    -1.82468  -19.30157   -1.62920
       H   -10.71054  -18.32077   -7.26924
       O   -10.65025  -17.47296   -6.84009
      H1   -10.09746  -17.56242   -6.09116
       H    -8.62114  -17.70765   -1.19665
       O    -8.42836  -16.79223   -1.37144
      H1    -7.56602  -16.79684   -1.86215
       H    -7.10859  -13.14251   -5.55764
       O    -6.26091  -12.96768   -6.03963
      H1    -6.32597  -12.00848   -6.18181

