45
frame 6 | Written by MDAnalysis XYZWriter (release 2.4.3)
       H    -8.02429   11.55576  -13.26719
       O    -7.94740   12.45157  -13.60179
      H1    -8.41263   12.91620  -12.91485
       H    -3.97080   14.33227  -11.03071
       O    -4.57063   13.60440  -11.01412
      H1    -4.36242   12.96366  -11.66655
       H    -9.72485   17.21852   -9.60352
       O   -10.09213   17.31892  -10.50787
      H1    -9.31399   17.68330  -10.96119
       H    -6.05524   14.68577  -11.05186
       O    -6.68812   15.45125  -11.16765
      H1    -6.18706   16.26404  -10.95770
       H    -8.61782   18.40575  -12.87464
       O    -8.00032   18.22634  -12.11951
      H1    -7.43424   17.44062  -12.27821
       H    -9.33093   18.96831   -9.44996
       O    -8.67487   19.58512   -9.21380
      H1    -7.84755   19.14634   -8.98159
       H    -4.71492   17.13978  -14.09450
       O    -5.60416   16.98476  -13.78209
      H1    -6.25386   17.22841  -14.48664
       H    -5.88002   17.18107   -8.83249
       O    -6.21220   18.04685   -9.14963
      H1    -5.56385   18.69679   -8.97123
       H    -6.34295   14.61002   -6.95498
       O    -6.51870   15.50366   -7.03778
      H1    -5.71143   15.91236   -6.67921
       H    -7.36576   16.27314  -16.19377
       O    -7.70489   15.30832  -16.16873
      H1    -7.26850   14.80857  -15.41713
       H    -9.46746   12.80949   -9.86968
       O    -9.61449   12.37325   -9.03194
      H1   -10.06172   13.08634   -8.54853
       H    -6.45698   13.53788  -13.95035
       O    -5.92823   14.31891  -14.19623
      H1    -6.06596   14.98288  -13.50658
       H    -1.93830   14.86544  -11.11155
       O    -2.55566   15.59731  -10.99512
      H1    -2.50822   15.96047  -10.06160
       H    -3.92033   12.73893   -9.54951
       O    -3.62661   12.20022   -8.79397
      H1    -3.09060   12.86423   -8.28793
       H    -9.75410   14.17619  -11.61081
       O    -8.87955   13.70891  -11.50737
      H1    -8.22234   14.33164  -11.28235

