45
frame 6 | Written by MDAnalysis XYZWriter (release 2.4.3)
       H     7.07646    4.13386    3.89587
       O     7.23217    3.16579    3.98391
      H1     6.87870    3.01303    4.87961
       H     2.78571    6.40498    6.40142
       O     3.07520    6.15073    5.53136
      H1     3.82523    5.51599    5.75384
       H     4.64421   -0.04365    5.26949
       O     3.93604    0.62036    5.03342
      H1     4.02526    1.44162    5.57120
       H     5.91709    5.29870    5.16904
       O     5.38364    4.87664    5.87484
      H1     5.91595    5.01585    6.69247
       H    10.14251    6.39409    5.26554
       O     9.55856    5.79381    4.82410
      H1     9.82456    4.91215    4.94995
       H     6.97210    0.59481    6.00924
       O     7.15257    1.51373    6.23699
      H1     8.05601    1.58404    6.54754
       H     7.86493    6.04905    4.09918
       O     6.96661    5.92898    3.77803
      H1     6.99419    6.01295    2.76970
       H     9.36146    8.13089    8.13024
       O     8.38682    8.27348    8.11250
      H1     8.26923    9.27787    8.11237
       H     6.87128    6.53070    8.02249
       O     6.37541    5.72132    8.26333
      H1     5.67220    6.14235    8.77625
       H     1.17336    3.05984    7.63177
       O     1.86677    2.62421    8.18835
      H1     2.68789    2.67641    7.70976
       H     2.79786    7.40394    8.40694
       O     2.02495    7.28720    7.80269
      H1     2.04345    8.00422    7.12811
       H     3.53778    5.76873    9.54234
       O     4.03678    6.58760    9.47881
      H1     4.17888    7.08047   10.32139
       H     4.82420    2.05269    7.46351
       O     4.29054    2.61462    6.91942
      H1     4.91229    3.23051    6.44339
       H     4.12969    8.12866    4.68567
       O     4.69393    8.12652    3.89065
      H1     5.40075    7.44114    4.04742
       H     7.32465    5.47634   10.33082
       O     7.69307    4.86404   10.99897
      H1     7.97107    5.49267   11.65599

