45
frame 6 | Written by MDAnalysis XYZWriter (release 2.4.3)
       H     7.67912  -17.98210   17.54611
       O     8.58661  -17.74076   17.86732
      H1     8.60107  -16.78505   17.75101
       H     9.02064  -13.79496   13.55650
       O     9.32653  -14.57076   14.00757
      H1     8.90539  -14.58832   14.89668
       H    16.68433  -14.22879   17.24405
       O    16.79806  -15.00595   16.72827
      H1    17.62564  -15.40336   17.06678
       H    12.20631  -13.39059   14.68563
       O    11.59935  -13.41926   15.42624
      H1    10.82633  -13.84305   15.05693
       H    11.43813  -11.78056   14.92642
       O    11.44322  -10.82026   14.90696
      H1    11.54207  -10.69386   13.96551
       H    10.15491  -16.03665   13.88937
       O    10.84366  -16.73911   13.96206
      H1    10.40798  -17.50075   13.62580
       H    13.24747  -11.22125   15.73549
       O    14.10859  -10.94851   16.10759
      H1    14.05599  -11.22906   17.01115
       H    10.24025  -12.11773   19.30463
       O    10.84473  -11.77535   18.60583
      H1    10.93281  -12.62180   18.16960
       H     7.95779  -15.98405   16.14482
       O     8.44849  -15.20508   16.41348
      H1     7.86320  -14.52549   16.79918
       H    14.01364  -13.85885   13.87319
       O    13.37632  -13.37640   13.42591
      H1    13.68793  -12.49765   13.42781
       H    12.90366  -14.48783   18.39605
       O    12.03622  -14.51229   18.05198
      H1    12.10567  -14.61372   17.08377
       H    14.55815  -14.77376   20.05606
       O    14.64634  -14.91808   19.13146
      H1    15.17841  -14.21337   18.75410
       H     9.88884  -18.37494   16.79166
       O    10.74706  -18.70196   16.45756
      H1    10.92505  -18.12972   15.71449
       H    15.62955  -15.45146   15.34814
       O    15.00256  -15.71188   14.68465
      H1    14.62342  -16.61089   14.92251
       H    15.18709  -17.26100   17.20351
       O    16.03536  -17.77925   17.31762
      H1    16.75229  -17.12811   17.42712

