45
frame 7 | Written by MDAnalysis XYZWriter (release 2.4.3)
       H    10.75370  -14.10673    1.54566
       O    11.12743  -14.27877    2.43270
      H1    11.20630  -15.26224    2.42621
       H     7.44982  -13.58133    6.10267
       O     7.30888  -14.18743    5.38992
      H1     7.48606  -13.80707    4.52263
       H    10.24634  -18.89306   -0.03807
       O    10.87560  -19.28458    0.61232
      H1    10.99984  -18.52517    1.23649
       H     9.40601  -18.92684   10.33411
       O     9.11050  -19.82129   10.37865
      H1     9.32189  -20.19103   11.25266
       H    10.05066  -17.14753    9.47080
       O    10.04465  -17.30804   10.41758
      H1     9.24242  -16.82617   10.76657
       H    11.95320  -14.58845    9.33471
       O    11.81228  -14.92808    8.42869
      H1    12.48259  -14.38247    7.91704
       H    12.82570  -16.41500    8.22934
       O    13.57204  -16.96596    8.08427
      H1    13.49918  -17.63761    8.76107
       H    14.27058  -18.61866    5.46452
       O    14.33223  -18.84224    6.38727
      H1    13.83157  -18.14876    6.86185
       H    10.43440  -18.84319    4.77246
       O     9.62669  -18.43351    5.17587
      H1     9.87040  -18.08445    6.06812
       H    13.53417  -17.47882    3.46135
       O    14.35057  -17.89932    3.73357
      H1    15.13552  -17.25233    3.78474
       H    11.53749  -16.67238    1.57986
       O    11.41153  -17.05175    2.49180
      H1    10.45929  -17.08848    2.57332
       H     7.06325  -15.22723    8.61428
       O     6.89355  -14.63823    9.30296
      H1     7.44258  -14.93614   10.06594
       H     9.02485  -16.74094    4.00675
       O     8.62343  -16.34771    3.16183
      H1     8.51460  -15.39406    3.34475
       H     8.85954  -16.52366    7.51840
       O     9.72997  -16.75207    7.76905
      H1    10.27308  -15.95169    7.80800
       H     7.05774  -15.69014    6.41119
       O     7.21952  -16.31822    7.14041
      H1     6.39813  -16.68961    7.45098

