45
frame 6 | Written by MDAnalysis XYZWriter (release 2.4.3)
       H    -1.02201   16.24016   -3.72080
       O    -1.75929   15.82172   -3.23098
      H1    -1.88894   16.48217   -2.55036
       H    -5.35371   18.97441   -2.53553
       O    -6.02218   19.53936   -2.22853
      H1    -5.96266   20.40882   -2.62140
       H    -7.12351   16.03488   -1.94795
       O    -6.67854   15.79849   -1.14768
      H1    -6.91525   14.83924   -0.87597
       H    -4.12644   15.72885   -5.28062
       O    -4.33106   16.57511   -5.71423
      H1    -4.96185   16.94253   -5.07088
       H    -5.35943   12.28795   -2.94034
       O    -5.38906   13.24531   -3.05805
      H1    -6.34057   13.38615   -3.36045
       H    -8.05377   17.32502   -4.05497
       O    -7.93044   17.43521   -3.10832
      H1    -7.49837   18.31160   -2.98471
       H    -4.64992   14.51757    2.31834
       O    -4.37210   15.11816    1.62001
      H1    -4.91130   15.87510    1.83592
       H    -5.15898   19.49216   -0.38838
       O    -4.70439   18.96160    0.23995
      H1    -4.59117   19.54053    1.04136
       H    -1.66418   17.97959   -0.81988
       O    -2.37501   18.27428   -1.39236
      H1    -3.04775   18.66510   -0.88379
       H    -5.41636   13.30228   -1.02779
       O    -5.83831   13.29414   -0.14014
      H1    -5.45124   13.88790    0.54517
       H    -6.93778   17.23134    1.40969
       O    -6.00476   17.26248    1.78812
      H1    -5.51541   17.83338    1.18918
       H    -3.74606   17.34952   -2.25009
       O    -4.54458   17.02311   -2.66505
      H1    -5.05055   16.57726   -1.96403
       H    -2.77078   19.34199   -5.40673
       O    -2.39812   18.54925   -5.83555
      H1    -2.89968   17.83409   -5.41775
       H    -7.98228   16.63524   -0.07092
       O    -8.65675   16.78409    0.61247
      H1    -9.04580   17.65820    0.46824
       H    -3.92320   13.79826   -4.13080
       O    -3.30530   14.16054   -4.80928
      H1    -2.74407   14.77863   -4.31208

