45
frame 7 | Written by MDAnalysis XYZWriter (release 2.4.3)
       H     6.10401    2.30535  -18.02317
       O     5.37868    1.83700  -17.59415
      H1     4.77801    2.53730  -17.34192
       H     3.80060    6.21673  -19.71483
       O     2.88224    6.19387  -19.38593
      H1     2.46055    7.04491  -19.29191
       H     0.57294    3.73831  -17.99744
       O     1.02366    3.72811  -18.85975
      H1     1.58087    4.50863  -19.08466
       H     7.55903    8.45086  -17.48602
       O     8.40313    8.93962  -17.46755
      H1     8.85875    8.70650  -18.34013
       H     3.23264   10.03857  -16.82368
       O     3.67653    9.83026  -17.68097
      H1     4.46458   10.38893  -17.83622
       H     2.31018    9.02208  -18.59636
       O     1.57793    8.45135  -18.85732
      H1     1.03210    8.28594  -18.04523
       H    -0.91407    7.62108  -16.58439
       O     0.07551    7.52627  -16.52095
      H1     0.34844    7.07991  -15.72367
       H     5.18457    4.51676  -13.79043
       O     5.46611    3.93701  -14.51786
      H1     6.26137    4.28541  -14.95853
       H    -1.55307    4.07502  -16.74352
       O    -0.57457    3.99927  -16.74042
      H1    -0.18513    3.92745  -15.83733
       H     5.99862   12.48043  -18.77177
       O     5.53960   11.63217  -18.85832
      H1     6.12488   11.07842  -19.32933
       H     4.30061    4.24486  -16.10099
       O     3.79995    4.08540  -16.92815
      H1     3.62783    4.95224  -17.36419
       H    -1.85120    5.79135  -19.36221
       O    -0.99029    6.04083  -19.11487
      H1    -0.69031    5.43977  -18.44331
       H     4.91986    8.48279  -17.26806
       O     5.61948    8.16873  -16.77729
      H1     5.70967    8.77396  -16.03600
       H     2.90900    1.77578  -15.33702
       O     2.13352    1.96314  -15.92699
      H1     2.41136    2.67108  -16.55396
       H     4.15417    7.68803  -15.33249
       O     3.69983    7.53807  -14.47994
      H1     3.48839    8.40366  -14.12700

