45
frame 7 | Written by MDAnalysis XYZWriter (release 2.4.3)
       H     2.64223   15.48846   16.95594
       O     2.59501   15.95310   17.85625
      H1     3.23373   15.50078   18.40267
       H     2.24548   19.12252   13.40962
       O     2.22232   20.05558   13.69424
      H1     2.85196   20.14438   14.39632
       H     3.51976   17.24631   12.46573
       O     2.57351   17.43178   12.70439
      H1     2.05233   16.98003   12.02738
       H     0.36558   14.56039   19.54037
       O     0.21785   15.18894   18.79735
      H1     1.14738   15.42052   18.52555
       H    -1.34218   17.95642   11.85183
       O    -0.95831   17.61592   10.96307
      H1    -1.79751   17.27855   10.53949
       H    -0.99535   14.12441   17.50948
       O    -1.32571   13.54435   16.78397
      H1    -2.25707   13.23640   17.05358
       H    -0.12635   17.12309   14.72010
       O    -0.01383   17.77080   15.41459
      H1    -0.86764   17.75939   15.90171
       H    -0.45774   13.96313   15.19812
       O    -0.37877   14.12613   14.26309
      H1    -0.64162   13.29314   13.84384
       H     1.66916   18.25675   15.93767
       O     2.35460   18.24705   16.58525
      H1     2.26500   17.44492   17.12145
       H    -3.87416   16.21600   11.75919
       O    -3.35938   16.33481   12.61278
      H1    -3.07212   17.24860   12.66487
       H    -0.91576   18.40888   18.22524
       O    -1.28144   17.52533   18.62262
      H1    -0.49930   17.00464   18.85462
       H    -2.04312   18.60955   13.97953
       O    -2.14645   18.80115   13.05427
      H1    -1.60711   19.60667   12.99258
       H    -2.48283   17.53229   17.07830
       O    -2.52947   17.52949   16.11633
      H1    -2.63844   16.63148   15.85079
       H    -1.97654   14.74905   14.78576
       O    -2.89115   14.92059   14.94424
      H1    -3.12245   15.57201   14.30954
       H     2.63120   16.35956   14.90357
       O     2.54998   15.42087   15.15331
      H1     1.77482   15.10720   14.66734

