45
frame 6 | Written by MDAnalysis XYZWriter (release 2.4.3)
       H   -15.38880   13.39477  -13.20945
       O   -16.21609   13.66858  -12.83374
      H1   -16.05588   14.40170  -12.23038
       H   -19.53131   15.74837  -18.56108
       O   -19.87319   14.80854  -18.49956
      H1   -19.27890   14.26413  -17.95425
       H   -17.73831   16.39211  -13.84761
       O   -17.89623   16.17562  -14.75279
      H1   -18.09108   16.96641  -15.29315
       H   -16.18342   17.78650  -18.82755
       O   -15.83767   17.52353  -17.95731
      H1   -16.32275   16.72650  -17.75370
       H   -16.58393   10.49358  -19.17365
       O   -17.42429   10.26406  -18.80535
      H1   -17.23430    9.38547  -18.42268
       H   -17.69138   11.49643  -12.93919
       O   -17.98739   10.63107  -13.22355
      H1   -17.92064   10.12295  -12.36499
       H   -12.90466   12.93905  -14.04021
       O   -13.76376   12.48371  -13.92338
      H1   -14.18173   12.40809  -14.78066
       H   -12.26107   13.70432  -18.09470
       O   -13.06378   14.20929  -17.99574
      H1   -13.51511   14.10758  -18.80798
       H   -15.59094   10.68654  -15.58408
       O   -15.84940    9.92925  -15.09514
      H1   -16.66016   10.12548  -14.60159
       H   -19.33765   13.99626  -11.89850
       O   -18.78183   13.97582  -11.08806
      H1   -18.79515   14.90172  -10.78970
       H   -19.08266   12.32040  -16.31596
       O   -18.53695   12.66779  -17.00633
      H1   -18.19984   11.99440  -17.62519
       H   -18.44802   18.42890  -17.13540
       O   -17.98689   18.37498  -16.24666
      H1   -17.13785   18.26488  -16.60044
       H   -14.19393   12.95374  -17.09260
       O   -15.00525   12.52483  -16.73319
      H1   -15.59050   13.27548  -16.74152
       H   -15.89463   16.17364  -14.93662
       O   -15.16121   16.63228  -14.52292
      H1   -15.53749   17.24869  -13.87619
       H   -16.27561   14.67061  -18.37873
       O   -16.61098   14.88804  -17.45227
      H1   -17.25823   14.21124  -17.38474

