45
frame 6 | Written by MDAnalysis XYZWriter (release 2.4.3)
       H   -15.39746   12.94204   18.54710
       O   -15.30293   12.17602   17.99018
      H1   -15.02134   11.45720   18.58035
       H   -13.84284   12.15799   16.34119
       O   -13.55093   11.48170   15.76358
      H1   -12.84180   12.04599   15.35197
       H   -13.78847   14.97888   17.32045
       O   -14.42082   15.14018   16.59536
      H1   -14.38969   16.14204   16.50545
       H   -16.29991    6.90569   16.32273
       O   -15.48288    7.29580   15.87563
      H1   -15.60822    6.98687   14.96423
       H   -14.66930   10.43331   14.86092
       O   -15.14402    9.81220   14.31597
      H1   -15.39714    9.04149   14.91886
       H   -16.92747   11.05547   14.67839
       O   -17.84197   11.02164   14.88067
      H1   -18.05299   11.35661   15.75193
       H   -14.49191   10.43427   12.44341
       O   -13.92796   10.63423   11.70449
      H1   -14.42406   11.37418   11.32832
       H   -18.38694    9.80584   18.28554
       O   -18.94274    8.99291   18.33712
      H1   -19.80503    9.30533   17.99304
       H   -17.55460   13.17101   12.73683
       O   -17.35704   13.58258   13.60464
      H1   -17.50425   12.83210   14.22813
       H   -16.18631   15.26502   16.86660
       O   -17.11379   15.35509   17.19030
      H1   -17.42893   16.15180   16.69940
       H   -19.47838    7.64159   11.66841
       O   -19.13824    8.41017   12.16435
      H1   -19.47871    8.35698   13.02336
       H   -18.54167   14.77189   14.29760
       O   -18.94261   15.64555   14.26452
      H1   -18.56357   16.06626   13.43746
       H   -16.98359   11.99769   18.13134
       O   -17.89542   11.73895   17.85182
      H1   -18.54149   12.34608   18.27089
       H   -14.87317   15.22699   19.17124
       O   -15.59654   14.58113   19.22447
      H1   -16.31048   15.02681   18.68879
       H   -19.37236   12.96417   10.92424
       O   -18.82150   13.49695   10.31281
      H1   -19.14128   14.36929   10.51854

