45
frame 7 | Written by MDAnalysis XYZWriter (release 2.4.3)
       H   -10.45416  -18.85998    5.85293
       O    -9.64328  -18.73012    5.35162
      H1    -9.19392  -19.56042    5.16250
       H   -10.13365  -17.47582    1.98669
       O    -9.28803  -17.77302    2.25292
      H1    -9.50113  -18.28077    3.05232
       H   -10.49663  -14.48147    4.29080
       O   -10.34218  -13.56769    4.09371
      H1    -9.95094  -13.52059    3.21660
       H   -11.20612  -14.56424    7.58514
       O   -10.52263  -15.02339    8.05624
      H1   -11.02421  -15.64824    8.59383
       H   -15.35907  -17.97973    3.22245
       O   -14.38706  -17.94438    3.13550
      H1   -14.05080  -18.76761    3.53402
       H   -11.82853  -19.25892    7.25497
       O   -12.08636  -18.60509    6.59198
      H1   -12.60446  -19.12020    5.94181
       H    -9.45758  -16.86710    5.10950
       O    -9.71816  -16.02364    5.43451
      H1   -10.34826  -16.11884    6.19165
       H    -8.55726  -17.84531   10.69153
       O    -9.28188  -18.28934   10.26278
      H1    -8.96955  -18.49654    9.34160
       H   -13.17204  -17.90137    7.69764
       O   -13.58737  -17.47543    8.48485
      H1   -13.97877  -18.20501    9.01405
       H    -8.62296  -18.37860    7.04753
       O    -7.98236  -18.52288    7.77078
      H1    -7.39954  -17.80468    7.97556
       H   -15.10086  -16.53482    7.28672
       O   -15.87607  -16.07795    6.89386
      H1   -16.17148  -15.57899    7.70238
       H   -17.35797  -18.27269    5.04399
       O   -16.97394  -17.45071    4.70549
      H1   -16.37560  -17.06200    5.37856
       H   -15.04952  -13.62912    4.81359
       O   -14.54244  -14.22297    5.41495
      H1   -15.11545  -15.00038    5.62356
       H   -10.88414  -17.33595   10.11219
       O   -11.62208  -16.74321   10.13593
      H1   -12.27452  -17.17154    9.54082
       H   -13.58248  -16.24356    3.12142
       O   -13.07488  -15.43752    3.33561
      H1   -13.53298  -15.03193    4.08919

