45
frame 7 | Written by MDAnalysis XYZWriter (release 2.4.3)
       H   -16.33064   13.84885    2.58087
       O   -17.00826   13.76563    1.89477
      H1   -16.53240   14.11516    1.18278
       H   -18.78250   11.35883    5.92395
       O   -19.08098   10.81896    6.69331
      H1   -19.23083   11.54843    7.34776
       H   -17.72174   18.69165    5.99499
       O   -17.94851   19.62481    6.06397
      H1   -17.65537   19.89722    6.90948
       H   -18.25559   14.93929    2.50090
       O   -18.82778   15.59496    2.87846
      H1   -19.49884   15.18503    3.47679
       H   -17.46595   16.93360    9.02316
       O   -17.98948   17.65147    9.33482
      H1   -18.76415   17.57691    8.81859
       H   -18.81458   18.34614    1.96354
       O   -18.13821   18.57400    2.58702
      H1   -18.54702   19.33060    3.11039
       H   -16.27510   16.69449    5.17010
       O   -17.17340   16.98926    5.00651
      H1   -17.28957   16.94713    4.03004
       H   -13.45270   17.27021    7.17446
       O   -14.33278   17.17427    6.72339
      H1   -14.92350   16.84599    7.45146
       H   -17.99418   12.55706    3.82064
       O   -18.84628   12.27171    4.15533
      H1   -19.18736   11.62429    3.53781
       H   -19.11020   13.17985    9.39733
       O   -18.97474   12.94555    8.44629
      H1   -18.97514   13.75880    7.96557
       H   -14.33699   13.32424    5.16037
       O   -14.50399   12.97143    6.01656
      H1   -14.69438   12.04092    5.97127
       H   -16.09622   14.87130    8.77713
       O   -15.98409   15.82401    8.85738
      H1   -15.18350   16.03595    9.40304
       H   -18.05412   15.78228    5.93075
       O   -18.63809   15.23376    6.47357
      H1   -19.34620   15.84794    6.72548
       H   -17.84022   17.32203   11.04105
       O   -17.66270   17.10841   11.98156
      H1   -17.21702   17.83595   12.43560
       H   -16.72629   12.65281    8.15898
       O   -15.87232   13.10636    8.31502
      H1   -15.44882   13.12266    7.43506

