45
frame 8 | Written by MDAnalysis XYZWriter (release 2.4.3)
       H    -7.05642    9.55148  -17.74268
       O    -7.83030   10.05711  -17.51035
      H1    -7.52777   10.98286  -17.62916
       H    -4.42292   15.81031  -15.03343
       O    -4.08756   15.10531  -15.62360
      H1    -4.53197   15.28979  -16.49267
       H    -1.54905   17.40130  -17.30628
       O    -0.79635   17.27573  -16.71498
      H1    -0.75000   16.30557  -16.67406
       H    -4.30862   16.80117  -18.20262
       O    -4.88554   16.09290  -17.97295
      H1    -4.83766   15.41828  -18.64281
       H    -4.65169   13.07710  -15.19499
       O    -4.83967   12.25109  -15.56971
      H1    -4.67188   11.50673  -14.96192
       H    -5.25632   17.29858  -13.86314
       O    -6.04794   16.91956  -14.31328
      H1    -6.18455   17.26316  -15.18641
       H    -6.73386   16.83815  -17.64083
       O    -7.37324   16.83641  -16.88130
      H1    -8.31742   16.71947  -17.20082
       H    -0.18273   12.99552  -18.94532
       O    -0.42657   13.93456  -18.98436
      H1    -0.90238   14.04824  -18.08114
       H    -7.04456   14.96405  -16.28010
       O    -7.28430   14.06949  -16.48608
      H1    -6.89669   13.56689  -15.80164
       H    -7.87704   12.92994  -19.49532
       O    -7.12867   12.57334  -18.99825
      H1    -6.94645   13.31201  -18.32927
       H   -10.68569   16.13009  -18.25164
       O    -9.96825   16.39940  -18.86913
      H1   -10.24519   17.20582  -19.28713
       H    -3.09653   18.83031  -18.23334
       O    -2.87848   17.91586  -18.20007
      H1    -2.58555   17.81703  -19.10995
       H    -1.31840   14.26063  -15.27119
       O    -1.20260   14.67542  -16.17954
      H1    -2.03024   15.16891  -16.19005
       H    -9.06010   13.62065  -15.77794
       O    -9.65261   12.95893  -15.46525
      H1    -9.31678   12.35958  -14.71762
       H    -3.21959   10.57578  -18.35690
       O    -3.43369   10.32258  -17.43857
      H1    -3.96188   11.08872  -17.06825

