45
frame 7 | Written by MDAnalysis XYZWriter (release 2.4.3)
       H    19.11566    4.68164   -9.17593
       O    19.12771    5.55104   -9.65000
      H1    19.24000    5.47645  -10.63917
       H    16.91289    4.87993  -17.86997
       O    17.77779    4.83131  -17.47319
      H1    18.29883    5.38732  -18.09195
       H    14.47050    7.10014  -12.53950
       O    13.59330    7.41293  -12.75659
      H1    12.97302    7.14459  -12.08793
       H    16.39955    7.79541  -15.50992
       O    15.84644    8.59225  -15.35496
      H1    15.29906    8.68906  -16.13286
       H    18.45991    6.06998  -12.93768
       O    18.98143    5.47080  -12.36287
      H1    18.66252    4.58652  -12.54247
       H    16.57503    7.88608  -12.01488
       O    16.36073    7.19772  -12.61429
      H1    16.26975    7.54783  -13.48489
       H    15.85231    2.81239  -13.56576
       O    16.00831    2.06794  -13.01845
      H1    16.23211    1.39425  -13.62039
       H    15.82340    8.72853  -10.13993
       O    16.64806    9.12903  -10.48491
      H1    16.49338    9.94719  -11.03090
       H    17.83897    5.76500  -15.89744
       O    17.85690    6.31805  -15.13858
      H1    18.65576    6.77464  -15.32507
       H    16.05219    3.84875   -7.88345
       O    16.78484    4.44846   -7.86463
      H1    16.90510    4.61692   -8.79399
       H    15.92539    5.35842  -14.58796
       O    15.38539    4.59637  -14.33550
      H1    14.68577    4.84927  -13.77669
       H    19.74195    8.98125   -8.58280
       O    19.49413    8.06799   -8.42386
      H1    19.36451    7.54238   -9.24818
       H    18.10347    9.15692  -14.75773
       O    19.04999    9.01246  -14.75290
      H1    19.26304    9.10517  -15.67300
       H    16.67939    5.15782  -11.14372
       O    16.17316    4.46352  -10.66300
      H1    16.16157    3.69154  -11.27402
       H    17.75093    2.17112  -12.28796
       O    18.46769    2.69238  -11.92040
      H1    19.26210    2.50833  -12.39562

