45
frame 8 | Written by MDAnalysis XYZWriter (release 2.4.3)
       H    -1.78799  -18.20508   16.76526
       O    -0.99944  -18.70366   16.53415
      H1    -0.48752  -18.74098   17.35454
       H     2.98151  -19.22635   12.83792
       O     2.48868  -18.59698   13.38818
      H1     3.06354  -18.44646   14.17255
       H    -1.30127  -18.03952    9.53659
       O    -1.97798  -17.40715    9.78431
      H1    -2.17899  -17.34037   10.73577
       H     3.34725  -19.69619   16.71929
       O     3.87295  -19.04295   16.22436
      H1     4.27414  -18.43565   16.88581
       H     3.19050  -17.31731   12.41035
       O     3.77971  -16.65595   11.93305
      H1     3.18298  -16.17764   11.33820
       H    -0.69591  -13.48408   12.31314
       O    -1.31147  -13.36415   13.08427
      H1    -2.10821  -12.92753   12.69289
       H    -1.00618  -20.14930   12.83568
       O    -1.62047  -19.45762   12.50499
      H1    -1.34673  -18.72309   13.04025
       H     1.23321  -14.38893   15.01584
       O     0.65879  -14.77099   15.71109
      H1     0.10816  -15.46953   15.39144
       H     2.05768  -16.99031   17.70939
       O     2.19078  -16.08277   17.47460
      H1     1.53794  -15.82612   16.80551
       H     3.39458  -12.86552   15.03499
       O     2.62677  -13.09882   14.46821
      H1     2.98899  -13.06114   13.52740
       H    -3.66442  -15.75235   15.90231
       O    -3.81580  -16.25657   15.09138
      H1    -3.34057  -15.74082   14.44511
       H     1.27662  -18.99923   19.12383
       O     1.09578  -18.69536   18.22122
      H1     1.29246  -19.39912   17.60173
       H     0.85156  -17.64062   13.83093
       O     0.03572  -17.21426   14.11360
      H1    -0.09887  -17.52697   15.03705
       H     5.28327  -15.32186   13.99206
       O     4.89589  -15.67784   14.77697
      H1     4.26939  -16.31942   14.55619
       H    -1.74380  -14.80870   13.03808
       O    -2.14894  -15.69316   12.98915
      H1    -1.35116  -16.22171   13.10623

