45
frame 8 | Written by MDAnalysis XYZWriter (release 2.4.3)
       H    17.47323  -14.05567   -6.59758
       O    17.10408  -14.34324   -7.44898
      H1    17.11629  -13.56877   -8.04814
       H    18.75996  -14.84874   -8.18341
       O    19.57209  -15.40426   -8.29062
      H1    19.33447  -16.19301   -8.84344
       H    20.13336  -18.05504   -3.37261
       O    19.60745  -17.67263   -4.06894
      H1    18.80154  -17.39455   -3.65114
       H    17.62781  -12.04610   -4.46114
       O    16.98752  -11.47808   -3.90703
      H1    16.81659  -10.79148   -4.60186
       H    14.95051  -17.05080   -6.06940
       O    15.24168  -17.73738   -5.42095
      H1    15.39698  -18.45236   -6.08349
       H    14.28443  -12.13241  -11.27066
       O    15.24960  -12.24566  -11.32164
      H1    15.41392  -13.18231  -11.45749
       H    16.82349  -14.99211   -3.53344
       O    17.12741  -14.12695   -3.30861
      H1    16.39586  -13.63205   -3.62325
       H    14.30548  -14.30429   -6.14451
       O    14.61014  -15.04403   -6.67076
      H1    15.43694  -14.68765   -7.09981
       H    15.65605  -17.38544  -10.07106
       O    16.12107  -17.07514   -9.26172
      H1    15.99271  -17.83534   -8.65209
       H    19.84504  -13.07995   -5.23367
       O    18.85373  -13.09709   -5.13686
      H1    18.65195  -13.73602   -4.40471
       H    17.24332  -11.27958   -8.77542
       O    16.55313  -11.93467   -8.82480
      H1    16.19336  -11.84579   -9.73682
       H    19.40948  -12.96465  -11.10307
       O    19.17753  -12.43816  -11.89665
      H1    19.99377  -12.35655  -12.42311
       H    15.90466  -15.23195  -12.41926
       O    15.04617  -15.01052  -11.99248
      H1    14.89066  -15.74247  -11.41874
       H    16.37436  -17.29156   -4.21589
       O    16.93911  -16.95175   -3.47207
      H1    16.56261  -17.23920   -2.65636
       H    17.22528  -15.91577  -10.64709
       O    18.00419  -15.85685  -11.26696
      H1    18.04310  -16.73634  -11.76143

