45
frame 7 | Written by MDAnalysis XYZWriter (release 2.4.3)
       H   -18.37381  -14.03788  -11.39169
       O   -17.58979  -14.33291  -11.85303
      H1   -16.87201  -14.16833  -11.21083
       H   -11.87323  -16.85521  -11.90721
       O   -11.31581  -16.20511  -11.46140
      H1   -10.75955  -16.62578  -10.76489
       H    -9.03714  -13.98860  -11.83175
       O    -9.90114  -13.92523  -12.18019
      H1   -10.33779  -14.78882  -11.94805
       H   -10.53361  -13.06946  -10.59270
       O   -10.67680  -12.80691   -9.66936
      H1   -10.36357  -13.60654   -9.28524
       H   -16.83247  -15.25260   -8.14518
       O   -17.01123  -16.21314   -8.17735
      H1   -16.50373  -16.62291   -8.93217
       H   -15.59720  -10.09075  -11.88743
       O   -15.79396  -11.02937  -11.70303
      H1   -15.14599  -11.36197  -12.34678
       H   -14.96571  -12.95746  -15.00948
       O   -14.83341  -13.90644  -15.14275
      H1   -14.04770  -14.04503  -14.60273
       H   -12.66638  -12.96863  -12.34354
       O   -13.05073  -13.83949  -12.60310
      H1   -12.44092  -14.49728  -12.25616
       H   -16.55649  -15.43320  -12.96994
       O   -15.91345  -15.78237  -13.52877
      H1   -15.65471  -15.09488  -14.14107
       H   -13.67616  -12.92007   -7.05759
       O   -13.22551  -13.72333   -6.69609
      H1   -12.26207  -13.44557   -6.67943
       H   -11.80566  -10.49764   -9.66235
       O   -12.63657  -10.04768   -9.79477
      H1   -13.27687  -10.67214   -9.50176
       H   -14.84196  -12.10846   -9.41753
       O   -14.45503  -11.76683   -8.59432
      H1   -15.04997  -11.07483   -8.25916
       H   -14.73442  -17.70521   -9.93916
       O   -15.60087  -17.38210  -10.22510
      H1   -15.54517  -17.56716  -11.17667
       H   -14.48442  -14.27082  -10.89371
       O   -15.18483  -14.39229  -10.21080
      H1   -15.42050  -15.28161  -10.33664
       H   -15.12452  -16.41557   -7.70209
       O   -14.20850  -16.27396   -7.41209
      H1   -13.97627  -15.29706   -7.63542

