45
frame 8 | Written by MDAnalysis XYZWriter (release 2.4.3)
       H    11.71410   -8.63611   -9.82082
       O    11.89296   -8.38367   -8.92242
      H1    12.83564   -8.44670   -8.70546
       H     8.28131   -9.94375   -2.90660
       O     8.90218  -10.58041   -3.31310
      H1     9.61669   -9.99393   -3.70824
       H    11.39237  -13.42244   -9.85608
       O    10.45695  -12.99973   -9.94541
      H1    10.07817  -13.73844  -10.47956
       H    13.67320  -11.92120   -8.41800
       O    13.88924  -11.24236   -7.72604
      H1    14.77800  -11.64388   -7.59879
       H    12.51910  -11.74422   -6.51393
       O    11.99230  -11.54439   -5.67636
      H1    11.08895  -11.50256   -5.96688
       H     8.62404  -11.93600   -7.49498
       O     9.54213  -12.24519   -7.23102
      H1     9.85637  -12.62078   -8.04760
       H    12.45952   -9.45562   -6.39652
       O    12.98910   -8.80970   -5.91636
      H1    13.57135   -9.24059   -5.24334
       H    14.56361   -9.61568   -8.13945
       O    14.54703   -8.71178   -8.56089
      H1    14.79535   -8.24952   -7.74227
       H    14.30548  -14.30429   -6.14451
       O    14.61014  -15.04403   -6.67076
      H1    15.43694  -14.68765   -7.09981
       H    12.99589  -14.82772   -9.67774
       O    13.28467  -13.93331   -9.82405
      H1    13.97652  -13.95949  -10.44836
       H    13.13257  -12.54850   -4.62705
       O    13.82566  -13.20002   -4.50798
      H1    13.68511  -13.43099   -3.55327
       H    10.90382   -9.16746   -7.73162
       O    10.13643   -9.49054   -7.31655
      H1    10.10930  -10.48370   -7.43765
       H     8.60643  -14.74074   -6.09446
       O     9.48515  -14.60924   -5.78865
      H1     9.70573  -13.69803   -6.02071
       H    12.89253  -11.35462   -2.22656
       O    12.50907  -10.46622   -2.44733
      H1    11.61109  -10.58449   -2.78982
       H    11.70856   -8.79818   -4.64365
       O    10.85582   -8.75694   -4.09536
      H1    10.21780   -8.33182   -4.71200

