45
frame 0 | Written by MDAnalysis XYZWriter (release 2.4.3)
       H   -16.98786   -7.27328    1.53206
       O   -16.13650   -7.72637    1.39498
      H1   -16.26056   -8.23863    0.61500
       H   -16.40550   -9.10782    3.80477
       O   -15.46444   -9.03869    3.59101
      H1   -15.40148   -8.67228    2.68073
       H   -14.40791   -8.98513    7.45707
       O   -14.94279   -9.15423    8.22591
      H1   -15.11174   -8.26861    8.54693
       H    -9.93120   -8.03652    2.49154
       O   -10.55659   -7.99888    3.22577
      H1   -10.87180   -8.90870    3.39261
       H   -14.86040   -4.02135    4.20828
       O   -15.46232   -3.52047    3.62623
      H1   -15.19041   -3.73337    2.71168
       H   -11.43433  -10.48885    4.97597
       O   -11.15141  -10.52585    4.03737
      H1   -10.52484  -11.29903    3.95996
       H   -18.56033   -8.17243    4.23958
       O   -17.84924   -8.17570    4.93483
      H1   -17.41558   -7.33639    4.85423
       H   -13.64773   -5.95356    5.02277
       O   -14.16686   -5.21093    5.40336
      H1   -13.74024   -4.72024    6.16244
       H   -14.22605  -10.51146    3.34988
       O   -13.57251  -11.09349    2.83804
      H1   -12.73198  -10.99799    3.27531
       H   -12.08423   -9.13156    6.98206
       O   -12.72116   -9.38639    6.27501
      H1   -12.80844   -8.60970    5.76504
       H   -13.37640  -10.39933   -0.75635
       O   -12.46529  -10.12164   -0.43437
      H1   -12.46001  -10.26843    0.47480
       H   -12.59471   -7.37818    3.80841
       O   -13.36138   -7.56528    4.36613
      H1   -14.00986   -8.08053    3.89831
       H   -16.88403  -11.09890    6.06714
       O   -16.02613  -11.45278    6.22442
      H1   -15.47995  -10.74326    6.66066
       H   -16.12051   -5.08771    5.25408
       O   -17.02504   -5.23354    5.51468
      H1   -17.14173   -5.07564    6.45758
       H   -14.42407   -6.98237    0.93703
       O   -13.84209   -6.30867    0.62733
      H1   -13.47409   -6.60168   -0.19887

