45
frame 0 | Written by MDAnalysis XYZWriter (release 2.4.3)
       H    -5.37141   11.60217  -13.44671
       O    -5.06520   12.12850  -12.73392
      H1    -5.18821   11.53121  -12.00739
       H    -4.11233   14.56976  -10.47154
       O    -4.32906   14.49814  -11.43600
      H1    -4.36745   13.62225  -11.79373
       H    -5.00431   18.62971  -11.24919
       O    -5.87595   18.78131  -11.68608
      H1    -5.90859   19.66542  -12.03353
       H    -2.89351   19.08003  -10.97540
       O    -3.31011   18.31511  -10.53003
      H1    -3.85866   18.67413   -9.82747
       H    -6.01351   13.92205  -10.37452
       O    -6.81168   13.87947   -9.83648
      H1    -7.57008   13.49288  -10.39732
       H    -3.26324    8.80491   -9.80925
       O    -3.45945    9.50350   -9.15393
      H1    -3.09041   10.36998   -9.33747
       H    -8.43819   16.76277   -8.50998
       O    -8.63754   16.14654   -9.20285
      H1    -7.84597   15.53138   -9.15714
       H    -6.80079   13.16051  -13.01807
       O    -7.68502   13.42598  -13.31244
      H1    -7.57745   14.36600  -13.57499
       H    -5.46934   13.19670   -7.98060
       O    -5.18069   12.54315   -7.29928
      H1    -5.63165   11.72298   -7.58308
       H    -3.59741   14.45539   -7.95954
       O    -3.58176   14.63919   -8.90170
      H1    -2.76869   15.17849   -9.03685
       H    -1.73860   15.71411  -13.25520
       O    -2.07781   16.57203  -13.43184
      H1    -2.93175   16.58442  -12.91180
       H    -2.06644   12.02464  -10.72072
       O    -2.31328   12.09704   -9.76666
      H1    -2.40959   13.06655   -9.67759
       H    -4.94304   15.95095  -12.44592
       O    -5.23382   16.67005  -12.99226
      H1    -5.64133   17.37850  -12.42601
       H    -6.52356   11.82643  -10.06291
       O    -6.09798   11.11444  -10.55224
      H1    -6.45448   10.38597  -10.05437
       H    -0.69602   16.12282   -9.20029
       O    -1.46057   16.12335   -9.85414
      H1    -1.89547   16.98777   -9.96819

