45
frame 7 | Written by MDAnalysis XYZWriter (release 2.4.3)
       H   -16.93803    4.26663   18.47505
       O   -16.03291    4.32283   18.33926
      H1   -15.82538    5.25515   18.57064
       H   -13.24858    3.99983   15.24375
       O   -12.67035    4.17377   14.52101
      H1   -11.96879    4.64136   14.89416
       H   -18.68246    5.69052   15.05781
       O   -17.95900    5.23376   15.60693
      H1   -17.81366    4.45358   15.09902
       H   -16.41040    2.58679   13.62327
       O   -16.43382    3.37630   14.13445
      H1   -15.98196    3.94639   13.51976
       H   -19.38075    2.25075   14.01050
       O   -18.82975    2.46465   13.22809
      H1   -18.00748    2.86453   13.53591
       H   -16.59418    6.22414   15.51418
       O   -15.74924    6.63109   15.51960
      H1   -15.28844    6.32610   14.69350
       H   -14.97735    9.95982   15.91702
       O   -15.80831    9.38505   15.92828
      H1   -15.51920    8.48365   15.82312
       H   -14.25076    6.67767   16.67575
       O   -13.73324    7.09241   17.36687
      H1   -13.04700    6.45867   17.61727
       H   -14.78282    5.45711   12.19467
       O   -14.80481    5.43494   13.15183
      H1   -13.96693    4.98941   13.38113
       H   -20.11622    8.86983   13.29013
       O   -19.67837    9.65731   12.96907
      H1   -18.95538    9.75243   13.55747
       H   -19.38680    3.24440   18.73272
       O   -19.69718    2.39845   18.37092
      H1   -19.10750    1.80527   18.82652
       H   -19.60788    6.88743   11.27821
       O   -18.83257    7.44802   11.30256
      H1   -18.97738    8.11005   12.07428
       H   -15.01657    6.95989   18.67512
       O   -15.71360    6.91934   19.36125
      H1   -15.31746    6.71154   20.21305
       H   -15.20465    3.49429   16.92573
       O   -14.69598    3.04561   16.25627
      H1   -15.46521    2.98173   15.60555
       H   -19.01438    5.39102   19.12266
       O   -18.88330    4.82969   18.31813
      H1   -18.66214    5.36893   17.53112

