45
frame 7 | Written by MDAnalysis XYZWriter (release 2.4.3)
       H    -4.43623   -2.60266   -7.82406
       O    -3.84031   -1.86982   -7.88658
      H1    -4.13781   -1.40307   -8.67113
       H    -1.79674   -2.39698   -5.78103
       O    -2.45994   -2.11342   -5.16502
      H1    -1.97455   -1.93910   -4.34727
       H    -5.22711   -0.84028   -6.85050
       O    -5.48891   -0.33012   -6.09946
      H1    -4.67018    0.04088   -5.68932
       H     0.32501    4.39110   -6.11791
       O    -0.01182    4.24707   -7.00220
      H1     0.76688    3.80727   -7.49505
       H    -0.12700    2.56763   -5.32107
       O     0.41569    1.77578   -5.54054
      H1    -0.19203    1.32448   -6.18918
       H     0.24933   -3.11564   -6.04601
       O     0.12792   -2.13138   -6.23365
      H1     0.85495   -1.91354   -6.88925
       H    -6.66969    1.79729   -8.12037
       O    -7.24362    1.21257   -7.65499
      H1    -6.63418    0.79558   -7.05374
       H     1.05171    3.90521   -9.84471
       O     1.32989    3.23110   -9.20309
      H1     0.86386    2.46094   -9.43296
       H    -1.01767   -2.82786   -8.08227
       O    -1.69207   -3.33245   -8.51262
      H1    -2.52049   -2.80274   -8.30360
       H    -2.48825   -0.22281   -5.41790
       O    -2.76512    0.67685   -5.14215
      H1    -1.99215    1.19677   -5.32786
       H    -3.63129    1.96004  -10.62519
       O    -3.62504    2.21832  -11.55539
      H1    -4.58110    2.27691  -11.56495
       H    -1.43224    0.04547   -9.19739
       O    -1.12725   -0.31682  -10.03238
      H1    -1.15101   -1.23301   -9.90318
       H    -5.80218   -0.13519   -9.55280
       O    -4.89983    0.05237   -9.85545
      H1    -4.71360   -0.65401  -10.42633
       H    -1.57691    3.82198   -8.32145
       O    -1.53398    3.22937   -9.08066
      H1    -1.68411    3.80828   -9.83448
       H    -2.50051    0.97584   -7.45461
       O    -1.50782    0.98352   -7.58456
      H1    -1.41859    1.74985   -8.14673

