45
frame 8 | Written by MDAnalysis XYZWriter (release 2.4.3)
       H   -16.71421  -18.80703   16.58917
       O   -16.72323  -18.33275   15.73980
      H1   -16.44470  -19.01428   15.13419
       H   -15.87748  -14.14757   18.05119
       O   -16.29308  -13.91376   17.21264
      H1   -15.65634  -13.90150   16.51007
       H   -15.80678  -17.96320   10.72118
       O   -15.91435  -17.64118   11.64058
      H1   -15.09316  -17.86663   12.11574
       H   -13.26565  -12.37202   17.52372
       O   -13.20621  -12.79053   16.65444
      H1   -13.26012  -13.73167   16.87114
       H   -12.73075  -19.90152   19.37173
       O   -13.34745  -19.23208   18.90060
      H1   -13.01975  -18.80996   18.10268
       H   -12.09476  -15.43826   15.99379
       O   -12.62813  -15.50871   16.83411
      H1   -12.00640  -15.58398   17.59996
       H   -17.98779  -18.17908   19.70146
       O   -18.35018  -18.24327   18.84174
      H1   -18.33994  -17.37187   18.56479
       H   -15.65276  -14.66854   12.95345
       O   -15.02226  -14.55652   13.72170
      H1   -14.84960  -15.45278   14.05412
       H   -16.55390  -19.08233   18.56463
       O   -15.85998  -19.47993   17.98495
      H1   -15.05234  -19.30511   18.48173
       H   -20.25745  -18.75863   16.02833
       O   -19.71846  -18.22296   15.39192
      H1   -18.80074  -18.30711   15.63091
       H   -13.62740  -18.67813   16.16992
       O   -12.73149  -18.30939   16.44929
      H1   -12.96617  -17.37020   16.47937
       H   -17.70132  -15.18511   17.49298
       O   -18.47568  -15.69507   17.79089
      H1   -19.17328  -15.57932   17.11664
       H   -12.62019  -19.21844   14.57295
       O   -12.44188  -19.77532   13.80736
      H1   -12.42973  -19.05099   13.10769
       H   -17.69094  -14.87381   12.56053
       O   -16.96819  -15.07043   11.96989
      H1   -16.88918  -16.03369   11.93585
       H   -14.62021  -15.90110   15.67959
       O   -14.71132  -16.76993   15.28158
      H1   -15.57157  -17.22323   15.56556

