45
frame 7 | Written by MDAnalysis XYZWriter (release 2.4.3)
       H     3.19578   16.87654  -14.60697
       O     3.23401   17.67303  -15.07502
      H1     3.44828   17.49437  -15.95049
       H     8.33786   17.21842  -17.45267
       O     7.95297   17.88976  -17.97793
      H1     8.70905   18.33016  -18.39344
       H     6.56605   16.32485  -12.86649
       O     6.56106   16.53987  -13.77156
      H1     6.64794   17.50724  -13.78402
       H     2.28310   15.08851  -14.21469
       O     3.22876   15.33402  -14.03573
      H1     3.77700   14.73344  -14.57692
       H     5.90184   15.70427  -15.36397
       O     6.03958   14.84449  -15.81467
      H1     5.27718   14.69486  -16.36595
       H    -1.92407   17.45934  -17.39822
       O    -1.05256   17.42557  -16.98209
      H1    -0.80032   16.48525  -17.00983
       H     3.95708   14.21517  -18.82955
       O     4.07348   15.00331  -19.38157
      H1     3.54154   15.71987  -18.88920
       H     1.81002   18.37716  -14.23750
       O     1.00731   18.57677  -13.83778
      H1     1.32255   18.76873  -12.92040
       H     6.65635   14.42791  -17.52807
       O     6.91236   14.17435  -18.42436
      H1     7.57290   13.45870  -18.25724
       H     2.52264   17.59553  -17.93863
       O     3.33820   17.10074  -17.99778
      H1     3.80589   17.80088  -18.47359
       H     0.12217   14.23268  -16.34278
       O    -0.59127   14.63764  -16.90738
      H1    -1.38451   14.69433  -16.33266
       H     0.35544   18.56290  -17.34927
       O     1.22836   18.95109  -17.56506
      H1     1.17005   19.78492  -17.06856
       H     6.61007   17.51358  -19.03913
       O     5.88823   17.38047  -19.71548
      H1     5.50895   16.45629  -19.59314
       H     4.77638   18.83421  -19.64153
       O     4.07125   19.52986  -19.54098
      H1     4.28751   19.90076  -18.62097
       H     2.28033   12.83990  -18.23253
       O     3.19372   12.90907  -17.89307
      H1     3.74071   12.28318  -18.32903

