45
frame 8 | Written by MDAnalysis XYZWriter (release 2.4.3)
       H    -1.28286  -16.67817   18.80646
       O    -2.16169  -16.95720   18.47495
      H1    -2.75751  -16.21773   18.36735
       H    -0.24964  -14.05614   19.26082
       O    -0.27398  -13.09955   19.21195
      H1     0.47503  -12.88948   18.59364
       H    -1.40977  -12.29485   14.54137
       O    -1.68957  -11.57892   15.11369
      H1    -0.99668  -10.90071   15.06574
       H     0.60426  -10.85497   16.25198
       O     0.49441  -10.09141   15.64665
      H1    -0.32135   -9.56138   15.81270
       H     0.57303  -16.37149   20.16282
       O     0.15220  -15.92307   19.44370
      H1     0.89958  -15.81765   18.83537
       H    -0.69591  -13.48408   12.31314
       O    -1.31147  -13.36415   13.08427
      H1    -2.10821  -12.92753   12.69289
       H     1.23321  -14.38893   15.01584
       O     0.65879  -14.77099   15.71109
      H1     0.10816  -15.46953   15.39144
       H     2.05768  -16.99031   17.70939
       O     2.19078  -16.08277   17.47460
      H1     1.53794  -15.82612   16.80551
       H     3.39458  -12.86552   15.03499
       O     2.62677  -13.09882   14.46821
      H1     2.98899  -13.06114   13.52740
       H     3.25016  -14.38900   17.18297
       O     4.02106  -13.96659   16.75095
      H1     4.35552  -14.54321   16.02862
       H    -3.66442  -15.75235   15.90231
       O    -3.81580  -16.25657   15.09138
      H1    -3.34057  -15.74082   14.44511
       H     0.85156  -17.64062   13.83093
       O     0.03572  -17.21426   14.11360
      H1    -0.09887  -17.52697   15.03705
       H     5.28327  -15.32186   13.99206
       O     4.89589  -15.67784   14.77697
      H1     4.26939  -16.31942   14.55619
       H    -1.74380  -14.80870   13.03808
       O    -2.14894  -15.69316   12.98915
      H1    -1.35116  -16.22171   13.10623
       H     1.16642  -13.23190   16.81135
       O     1.27891  -12.34033   17.16393
      H1     2.23879  -12.12753   17.00963

