45
frame 8 | Written by MDAnalysis XYZWriter (release 2.4.3)
       H    -7.67816  -10.15696    1.56206
       O    -7.83552  -11.00717    1.10475
      H1    -7.60084  -10.86604    0.22936
       H    -8.47831  -11.23120    6.00983
       O    -8.74338  -11.39602    5.10035
      H1    -9.52753  -11.96796    5.07122
       H    -9.71805   -8.84994    1.31554
       O   -10.45790   -8.65929    1.93769
      H1   -10.92941   -9.51714    1.97104
       H   -10.58177  -13.93570    4.41694
       O   -10.61197  -13.16506    3.80953
      H1    -9.86137  -13.38473    3.23808
       H   -10.70700  -12.47550   -2.23105
       O    -9.97104  -11.94260   -1.79263
      H1   -10.40397  -11.15662   -1.37743
       H   -12.30403  -10.92640    3.54963
       O   -11.96996  -11.11665    2.67674
      H1   -11.37425  -11.89550    2.85565
       H   -10.46126  -16.02773    4.81493
       O   -10.45320  -15.23928    5.39771
      H1   -10.34538  -15.61359    6.28196
       H   -12.46368  -11.10845    5.64223
       O   -13.00539  -10.46460    5.16007
      H1   -12.37761   -9.71370    5.01060
       H   -10.11168   -9.74465    5.12078
       O   -10.41340   -8.82543    4.89947
      H1   -10.25025   -8.66357    3.94973
       H   -14.82554  -10.04137    1.82972
       O   -14.44682  -10.90303    1.54441
      H1   -13.57930  -10.89891    1.97992
       H   -15.30649  -12.00687    2.79869
       O   -15.54622  -12.72571    3.41247
      H1   -16.00913  -12.20302    4.11073
       H    -8.70770  -12.65347    1.18923
       O    -8.85426  -13.49540    1.65486
      H1    -9.21229  -14.10820    0.98434
       H   -12.22852  -12.64380    7.22024
       O   -11.68158  -12.60908    6.42971
      H1   -12.05439  -13.18598    5.79101
       H   -14.00958  -13.47386    4.15738
       O   -13.46392  -14.01252    4.74760
      H1   -14.13504  -14.50623    5.22099
       H   -13.80249  -16.96274    3.54541
       O   -13.02297  -16.40704    3.46509
      H1   -12.98173  -15.76648    4.15571

