45
frame 0 | Written by MDAnalysis XYZWriter (release 2.4.3)
       H   -12.80534  -12.62668  -17.59042
       O   -12.20955  -12.43963  -16.83394
      H1   -11.66190  -13.21151  -16.78660
       H    -9.80908  -15.11419  -16.89010
       O   -10.47930  -14.44265  -16.64703
      H1   -10.06904  -13.89852  -15.92131
       H   -10.29707  -14.82553  -12.53074
       O   -10.12171  -14.49789  -11.60649
      H1    -9.85828  -13.56558  -11.75780
       H   -12.70572  -11.35351  -13.17200
       O   -11.75836  -11.33279  -12.94533
      H1   -11.27648  -11.76631  -13.62665
       H   -11.78535  -16.07927  -13.83678
       O   -10.85621  -15.76924  -14.04441
      H1   -10.91510  -15.38874  -14.92908
       H    -9.08934  -12.58334  -14.48933
       O    -9.99248  -12.45181  -14.81109
      H1    -9.91149  -11.83048  -15.54537
       H   -12.64960  -10.43489  -16.89672
       O   -12.42372   -9.49220  -16.89258
      H1   -11.52197   -9.38879  -16.52810
       H   -14.57345  -10.24522  -13.87781
       O   -14.51235  -11.00493  -13.36812
      H1   -14.84235  -10.70501  -12.52801
       H    -6.88614  -13.57278  -14.79239
       O    -7.49040  -13.11574  -14.20429
      H1    -6.92765  -12.62584  -13.57768
       H   -13.58254  -13.51466  -16.07343
       O   -14.36314  -14.03441  -15.77087
      H1   -15.13981  -13.48846  -15.98728
       H   -11.74080  -11.88384  -11.29198
       O   -11.58319  -12.04929  -10.32017
      H1   -11.40373  -12.99179  -10.17499
       H   -13.48430   -7.89990  -13.46687
       O   -12.68594   -7.63919  -12.97296
      H1   -12.01231   -8.31927  -13.24322
       H   -15.01225  -12.73579  -13.25090
       O   -15.39180  -13.61549  -13.37361
      H1   -15.02891  -13.94436  -14.24585
       H   -14.20809  -16.56028  -13.10928
       O   -13.41519  -16.07616  -12.92164
      H1   -13.77325  -15.22497  -12.85217
       H   -10.88548   -9.92870  -13.46711
       O   -10.40507   -9.19082  -13.88144
      H1    -9.61824   -9.06891  -13.26755

