45
frame 9 | Written by MDAnalysis XYZWriter (release 2.4.3)
       H     7.91966  -12.29167    5.95422
       O     8.32490  -13.06947    6.29566
      H1     7.99083  -13.18713    7.21499
       H     5.72964   -8.10192    9.25261
       O     5.61638   -7.96478   10.24605
      H1     6.04781   -8.72658   10.60851
       H     8.50126   -9.09086    7.38681
       O     8.12580   -8.75324    6.50405
      H1     8.68436   -7.99788    6.23534
       H     7.47823  -11.23057   11.22650
       O     7.11950  -10.50610   10.72828
      H1     7.76434  -10.47252    9.93543
       H     5.18919   -7.22585    6.94370
       O     5.96092   -7.36708    7.45159
      H1     6.58704   -7.83893    6.91912
       H    11.33419   -9.13212    6.03112
       O    11.86394   -9.92693    6.14429
      H1    12.47462   -9.65152    6.82532
       H     7.15073   -6.07437    7.32709
       O     7.87058   -5.53788    7.61728
      H1     8.55873   -5.60155    6.93277
       H     7.77745  -10.30879    5.37666
       O     7.18096  -10.98155    5.02885
      H1     7.51087  -11.17155    4.12498
       H     5.66125  -11.42560    6.43246
       O     4.90543  -11.30909    7.03839
      H1     5.19627  -11.52115    7.90951
       H     6.96645   -5.72527    4.48124
       O     7.82147   -6.20748    4.62953
      H1     8.23269   -6.35500    3.76349
       H    11.42197   -7.15547    5.73196
       O    11.61355   -7.37107    4.81369
      H1    12.50582   -7.14492    4.56964
       H     4.47781   -9.66038    3.68940
       O     4.90116   -9.01589    4.26467
      H1     5.69484   -9.46707    4.52424
       H    10.79052   -5.30140    6.70701
       O    10.53745   -6.17512    7.04782
      H1    10.63441   -6.04526    8.02514
       H     9.94072  -12.13709    7.20108
       O    10.43820  -11.50894    7.76381
      H1    10.87011  -10.91429    7.13477
       H     9.18523   -9.40172    9.72942
       O     8.76909   -9.69574    8.91523
      H1     9.40727  -10.29034    8.54784

