45
frame 9 | Written by MDAnalysis XYZWriter (release 2.4.3)
       H    -2.12343  -10.50751  -13.15301
       O    -1.67081   -9.65796  -13.25807
      H1    -1.62152   -9.48851  -14.22809
       H    -4.81203   -8.95831  -11.65384
       O    -4.90770   -9.74944  -11.10394
      H1    -5.10724   -9.40712  -10.18168
       H    -4.56782  -13.07469  -16.71022
       O    -4.12869  -13.34522  -15.87710
      H1    -3.74361  -12.54734  -15.59305
       H    -1.47604  -14.29613  -10.19868
       O    -1.09651  -13.90885  -11.02536
      H1    -0.70101  -13.06681  -10.74556
       H     1.76677   -8.07425  -10.41563
       O     1.61602   -7.50042  -11.18802
      H1     0.67901   -7.45616  -11.40860
       H     0.35539  -11.00034  -10.87224
       O     0.11026  -11.40299  -10.05554
      H1    -0.58563  -10.75262   -9.78032
       H    -4.32731  -10.05452  -16.70864
       O    -3.53545   -9.78316  -17.23894
      H1    -3.70123   -8.83698  -17.54999
       H    -2.07055   -8.66981   -9.02101
       O    -1.83766   -9.52590   -8.55345
      H1    -1.98041   -9.20077   -7.66260
       H    -3.52164  -12.63352  -12.78634
       O    -2.61467  -12.31296  -12.81442
      H1    -2.22624  -12.73147  -11.99523
       H    -3.69370   -6.92662  -13.24074
       O    -4.54567   -7.05622  -12.80847
      H1    -5.27616   -6.59684  -13.33936
       H     0.15000  -12.99825  -14.84152
       O     0.01781  -13.16233  -13.89479
      H1    -0.94659  -13.03413  -13.83132
       H    -1.44822   -7.02791  -11.21528
       O    -1.15634   -7.20561  -12.11996
      H1    -1.43925   -8.09156  -12.46092
       H    -0.65970   -5.55844  -13.33069
       O    -0.46499   -4.62392  -13.15536
      H1     0.39101   -4.37963  -13.44044
       H    -0.72591   -8.23528  -16.21214
       O    -1.16087   -7.77193  -15.49335
      H1    -0.45969   -7.44059  -14.90164
       H     0.58813  -11.78574  -12.99432
       O     0.90352  -10.86767  -12.64005
      H1     0.18432  -10.32714  -12.97810

