45
frame 9 | Written by MDAnalysis XYZWriter (release 2.4.3)
       H    18.08668   18.18506  -16.53352
       O    18.72431   17.62144  -17.07862
      H1    18.68841   17.93839  -17.96806
       H    12.92700   12.80723  -16.31428
       O    13.74226   13.30984  -16.40832
      H1    14.31117   13.07930  -15.67603
       H    17.24324   15.95280  -16.40700
       O    17.16691   15.44739  -15.51609
      H1    16.70655   14.62669  -15.65058
       H    14.15503   11.83202  -10.70572
       O    13.98899   12.10849  -11.61553
      H1    13.56430   12.97502  -11.55353
       H    15.65658   12.04977  -12.15082
       O    16.56665   11.85105  -12.40484
      H1    17.09042   12.25173  -11.70410
       H    16.63397   16.42838  -14.31130
       O    16.41914   17.15915  -13.73931
      H1    15.60047   17.55045  -14.16194
       H    18.62785   14.68609  -14.53152
       O    19.25413   13.97696  -14.32279
      H1    18.69757   13.19029  -14.19897
       H    18.50812   18.93610  -11.70301
       O    17.70723   18.82477  -12.18002
      H1    17.75009   18.09604  -12.73117
       H    16.11728    9.75038  -15.82509
       O    16.72131   10.37376  -16.25457
      H1    17.44242    9.98551  -16.77070
       H    18.83713    9.43645  -18.66812
       O    18.70442    9.60405  -17.73143
      H1    19.55522    9.91415  -17.41080
       H    16.49353   12.01549  -15.61577
       O    16.22848   12.82241  -15.13073
      H1    16.27249   12.46675  -14.24402
       H    18.69559   11.70499  -10.17597
       O    18.73366   12.42419  -10.84568
      H1    19.62794   12.48194  -11.22645
       H    15.57342    8.65135  -10.28764
       O    16.33486    9.04078  -10.74963
      H1    16.05807    9.88254  -11.16073
       H    18.03522   11.48520  -13.42196
       O    18.64545   11.29857  -14.13398
      H1    18.10913   10.80352  -14.76362
       H    15.77996   15.25782  -19.00359
       O    16.54377   15.38451  -18.40667
      H1    16.86383   14.45610  -18.27510

