45
frame 9 | Written by MDAnalysis XYZWriter (release 2.4.3)
       H    16.88828  -18.20505  -13.00883
       O    16.18540  -17.58490  -13.30974
      H1    15.47876  -17.67493  -12.61278
       H    15.15181  -12.69918  -15.96837
       O    14.73856  -13.48831  -15.56234
      H1    15.26376  -14.22246  -15.85982
       H    12.56790  -16.69377  -14.76706
       O    12.86980  -16.91627  -15.64641
      H1    13.56981  -17.52616  -15.71763
       H    16.72261  -16.61666  -15.47986
       O    16.48553  -15.77784  -15.86324
      H1    17.34725  -15.34985  -15.93889
       H    15.36554  -18.94890  -16.02562
       O    14.56432  -19.16787  -16.53448
      H1    14.79109  -19.40316  -17.44635
       H    10.28224  -12.98022  -17.02916
       O    11.23244  -12.95398  -16.87557
      H1    11.53794  -13.78809  -17.17318
       H    13.64723  -18.07836  -10.87276
       O    14.19360  -17.59618  -11.49110
      H1    13.60825  -16.97988  -11.97467
       H    12.29545  -17.44920  -19.49803
       O    11.43586  -17.57170  -19.09495
      H1    10.98875  -16.70818  -19.14425
       H    13.64051  -15.57793  -18.88239
       O    13.97977  -15.83288  -19.78805
      H1    14.78927  -15.36907  -19.92062
       H    16.74782  -16.94600  -17.55386
       O    17.34884  -17.46028  -18.08613
      H1    18.19476  -17.30919  -17.58820
       H    11.02598  -17.26173  -16.25077
       O    10.07244  -17.27909  -15.96959
      H1     9.65260  -16.49013  -16.30446
       H    16.09221  -13.72994  -19.37000
       O    15.49960  -13.48469  -18.68073
      H1    14.94541  -12.78807  -19.09855
       H    11.06989  -15.88950  -12.47608
       O    11.95757  -15.99098  -12.81583
      H1    12.19223  -15.09378  -13.14378
       H    19.69644  -17.12191  -15.41117
       O    19.29650  -16.65140  -16.13860
      H1    19.55798  -15.76008  -15.95119
       H    13.60475  -14.32204  -17.20329
       O    12.92201  -14.97606  -17.47615
      H1    13.11399  -15.72185  -16.84811

