45
frame 9 | Written by MDAnalysis XYZWriter (release 2.4.3)
       H   -16.95163  -20.19614   -4.85173
       O   -16.93021  -19.17732   -4.74684
      H1   -17.67883  -18.74574   -5.28486
       H   -12.58879  -18.52201   -8.91692
       O   -12.47554  -18.62686   -7.93794
      H1   -13.38836  -18.52441   -7.59206
       H   -17.82847  -15.55440   -7.26043
       O   -17.13891  -14.98777   -6.79591
      H1   -16.77729  -15.51937   -6.08102
       H   -19.08531  -18.55989  -10.69226
       O   -18.59226  -19.21906  -11.30717
      H1   -18.94098  -20.07722  -10.98214
       H   -15.74037  -18.12345   -5.50712
       O   -15.29538  -17.73150   -6.24359
      H1   -14.72637  -17.01185   -5.94435
       H   -19.50028  -17.58594   -6.46775
       O   -19.09140  -18.01487   -5.73903
      H1   -19.17422  -17.47035   -4.97461
       H   -15.45234  -19.18943  -11.04695
       O   -15.91562  -20.05861  -10.88992
      H1   -16.70886  -19.80645  -11.37673
       H   -16.18484  -19.93535   -8.74707
       O   -16.04326  -19.94329   -7.80634
      H1   -16.08091  -19.00860   -7.48543
       H   -13.89365  -17.86690  -11.21576
       O   -14.82987  -17.73480  -11.46437
      H1   -14.79615  -17.53578  -12.42662
       H   -17.86908  -17.98764   -1.54013
       O   -18.25801  -18.70613   -2.02210
      H1   -17.67480  -18.77845   -2.75492
       H   -12.90323  -18.00232   -3.57547
       O   -12.18076  -17.63597   -4.15611
      H1   -12.62122  -17.10155   -4.79501
       H   -11.87780  -17.62433  -10.96461
       O   -12.40479  -18.39048  -10.66740
      H1   -11.89964  -19.11764  -11.03333
       H   -15.60685  -16.64265   -8.42387
       O   -16.09244  -16.68672   -9.21041
      H1   -15.59355  -17.18279   -9.87984
       H   -15.64422  -15.28812   -3.96678
       O   -16.47035  -15.75120   -4.13075
      H1   -16.19076  -16.55363   -3.63816
       H   -13.69178  -14.92383   -5.42173
       O   -13.62787  -15.76608   -5.91288
      H1   -13.24864  -15.53197   -6.82174

