45
frame 9 | Written by MDAnalysis XYZWriter (release 2.4.3)
       H    17.61922   -1.96414   12.84133
       O    16.87890   -1.79911   13.44229
      H1    17.21949   -1.29521   14.16324
       H    18.74054   -3.67777   11.50907
       O    18.94810   -2.76204   11.59206
      H1    19.90805   -2.70797   11.74694
       H    15.29319    3.70880    8.86942
       O    15.42603    4.17480    8.00276
      H1    15.08881    5.09415    8.14876
       H    14.46695    1.98533   13.30378
       O    13.79313    2.58114   12.90429
      H1    13.45851    2.16170   12.10898
       H    18.67614   -4.51304    6.72225
       O    17.91752   -3.90530    6.53367
      H1    17.50240   -3.91176    7.38809
       H    16.07369   -1.19847   11.28853
       O    16.65101   -1.29235   10.56376
      H1    16.19131   -1.96969    9.99247
       H    17.37987    3.24962   14.03826
       O    17.57693    3.86141   14.76208
      H1    16.92062    3.64136   15.44189
       H    15.92156    0.25296   14.20463
       O    15.02670    0.34900   14.52849
      H1    14.53535   -0.10303   13.82343
       H    19.22386    3.07240    8.57106
       O    19.49543    3.75696    7.96741
      H1    18.58241    4.02533    7.76374
       H    16.27163    1.64853    9.93592
       O    15.59688    2.32336   10.09630
      H1    14.70008    1.98697    9.84918
       H    15.52914   -4.41184    8.22431
       O    16.19530   -4.09828    8.83300
      H1    16.41939   -4.86943    9.34063
       H    17.87130    0.09762   10.33489
       O    18.26248    0.98988   10.24636
      H1    19.24596    0.97427   10.44825
       H    18.67753   -2.40748    6.47030
       O    18.91483   -1.45805    6.47580
      H1    19.87661   -1.46956    6.24890
       H    16.52471    2.32427   11.73038
       O    16.94478    2.15978   12.56786
      H1    17.54155    1.40462   12.30219
       H    12.43170    2.23281    9.70380
       O    13.07302    1.52242    9.71508
      H1    12.69795    0.71539   10.06851

