45
frame 8 | Written by MDAnalysis XYZWriter (release 2.4.3)
       H     4.44517   12.33019   18.87569
       O     4.04441   12.77820   18.10894
      H1     4.66486   12.75704   17.36740
       H    10.98158    6.74846   17.84032
       O    11.74584    6.46306   18.36705
      H1    12.01163    5.70539   17.83068
       H     3.08708   10.87012   18.34759
       O     3.19658    9.94156   18.18078
      H1     4.13522    9.72845   18.06626
       H     5.42105   12.88482   14.85885
       O     5.93550   12.43518   15.57636
      H1     6.00067   11.53080   15.19348
       H     9.26123    8.55062   16.36766
       O     9.13155    7.65491   16.69531
      H1     8.69149    7.70796   17.51295
       H    11.32746   14.45731   18.87306
       O    10.37930   14.60129   19.06688
      H1    10.33297   14.76250   20.04243
       H    12.49560   13.13735   17.40832
       O    12.91821   13.63786   18.09821
      H1    13.03344   12.93121   18.79305
       H     7.63445   11.86543   18.50084
       O     7.64227   10.93741   18.85394
      H1     8.57375   10.68006   19.17054
       H    11.35074   14.17926   15.40096
       O    11.53089   13.27733   15.72055
      H1    12.03715   12.83379   15.04869
       H     8.53100    7.02625   15.31527
       O     8.10676    6.87110   14.45778
      H1     7.67452    5.98863   14.40384
       H     9.54094   13.03486   15.27523
       O     8.72351   13.29476   14.88905
      H1     8.00819   12.91321   15.40779
       H     8.82705   13.67815   18.08495
       O     7.91074   13.50488   17.81996
      H1     7.37692   14.26984   18.00207
       H     8.35336    6.66230   19.08521
       O     8.56777    7.54953   19.41206
      H1     9.34645    7.44039   19.97643
       H     5.49093    7.87971   18.10351
       O     5.63779    8.82181   17.93571
      H1     6.48124    9.04655   18.37136
       H     6.90290    8.34968   14.75415
       O     6.42907    9.10748   15.09329
      H1     5.97566    8.73765   15.88462

