45
frame 0 | Written by MDAnalysis XYZWriter (release 2.4.3)
       H    -2.37879   17.71560   -2.72889
       O    -2.84949   17.40049   -1.95057
      H1    -2.83673   18.17132   -1.35316
       H    -2.68699   13.78505    3.86905
       O    -2.80705   14.69596    3.61132
      H1    -3.43905   14.68461    2.87743
       H    -4.83495   18.66191    5.15821
       O    -5.72164   18.45268    4.82866
      H1    -5.57150   18.08064    3.92557
       H    -7.98969   16.73037    4.70319
       O    -8.75701   16.75159    4.13872
      H1    -8.77416   15.92494    3.61729
       H    -1.83457   15.89599    2.95262
       O    -1.26329   16.71808    2.81450
      H1    -0.91305   16.71956    3.72120
       H    -5.80360   18.82839   -1.50807
       O    -5.74815   19.39514   -0.73108
      H1    -6.59254   19.47615   -0.32803
       H    -7.99724   15.17298   -1.82885
       O    -7.73951   15.68339   -1.06318
      H1    -7.42774   14.97689   -0.52342
       H    -5.50493   14.56360    1.56169
       O    -4.76856   15.13433    1.62447
      H1    -5.01273   15.87992    2.22963
       H    -1.11743   18.85615   -0.00983
       O    -1.72467   19.53093   -0.32560
      H1    -2.48478   19.41628    0.23762
       H    -6.76553   17.57689    1.68908
       O    -5.92157   17.56118    2.25409
      H1    -5.12798   17.81886    1.73673
       H    -4.88557   16.75845   -1.97674
       O    -5.70676   16.95196   -2.46014
      H1    -6.29461   16.49529   -1.84122
       H    -8.34813   17.10215   -0.10645
       O    -8.36198   17.35183    0.86772
      H1    -8.63222   18.28807    0.86175
       H    -3.38833   20.00440    6.47381
       O    -3.29177   19.06830    6.15741
      H1    -2.62193   19.12953    5.46402
       H    -6.12611   17.11196    5.93796
       O    -6.58235   16.27436    6.17355
      H1    -6.85057   16.28764    7.10563
       H    -4.95334   15.71000    5.83952
       O    -4.00544   15.70462    5.86884
      H1    -3.60778   15.19973    5.08279

