45
frame 9 | Written by MDAnalysis XYZWriter (release 2.4.3)
       H   -10.38409    6.78617   12.81087
       O   -10.67263    7.05388   13.68655
      H1   -11.35445    7.68288   13.62514
       H    -9.23078   11.06802   14.21853
       O    -9.52831   11.46350   14.99385
      H1    -8.80337   12.07055   15.27431
       H   -12.58645    4.17829   14.62425
       O   -11.81660    4.42959   14.11817
      H1   -11.76368    5.36349   14.34384
       H   -14.75431    7.91270   10.05737
       O   -14.21299    8.38547   10.69866
      H1   -14.80798    8.97023   11.16715
       H    -8.72435    8.14993   10.23017
       O    -9.16947    8.84830   10.69178
      H1    -8.69021    8.99721   11.53603
       H   -13.88787    8.90540   14.67692
       O   -13.15796    8.36593   14.32061
      H1   -13.03299    7.71627   15.05094
       H    -9.26263    4.84042   12.67016
       O    -9.88266    5.12762   11.95758
      H1   -10.33842    4.36579   11.64457
       H   -13.14395    5.82611   15.91162
       O   -12.58502    6.51690   16.27873
      H1   -11.84568    6.06533   16.73747
       H   -15.60445    6.50813   12.05700
       O   -15.11998    6.42182   12.91576
      H1   -14.53117    7.16829   13.03930
       H    -9.61902    8.22586   16.56309
       O    -9.32784    7.58646   15.93508
      H1    -9.91816    7.49065   15.17675
       H    -7.64730    7.22099   15.10271
       O    -6.73199    7.23323   14.77727
      H1    -6.14280    7.40721   15.52454
       H    -7.66025    9.53336   13.48064
       O    -8.14163   10.16577   12.97573
      H1    -7.45250   10.80699   12.87823
       H    -9.92226    4.38305   14.85720
       O    -9.04356    4.48515   15.16595
      H1    -9.07461    5.23896   15.73949
       H    -9.00312    5.99149   10.67510
       O    -8.47819    6.32316    9.89424
      H1    -7.53869    6.14023   10.22682
       H   -12.34390    8.28791   10.18971
       O   -11.62770    8.71455    9.64834
      H1   -10.84737    8.74247   10.21763

