45
frame 8 | Written by MDAnalysis XYZWriter (release 2.4.3)
       H    16.52654   12.19648    4.54858
       O    16.91938   11.79404    3.77380
      H1    16.74470   10.81048    3.89792
       H    13.30004    8.96872    2.43758
       O    13.03078    8.17230    2.02588
      H1    13.84523    8.02523    1.46655
       H    17.70603   11.28351   -1.56977
       O    17.11661   10.69028   -2.10985
      H1    16.25238   10.66981   -1.63750
       H    16.76801   12.94730    2.13547
       O    16.83612   13.39250    1.28912
      H1    16.08826   13.20006    0.75211
       H    17.82435    9.09893    3.63952
       O    16.86974    9.04839    3.81733
      H1    16.70896    8.35694    4.46031
       H    18.81433   10.24337    0.24837
       O    19.12633    9.40925    0.57422
      H1    18.52015    8.70846    0.41832
       H    19.57556   12.35124   -0.24671
       O    18.65591   12.00733   -0.26315
      H1    18.04096   12.39446    0.31058
       H    18.71875    5.57899   -1.26820
       O    19.07499    6.48781   -1.14908
      H1    18.80543    7.07513   -1.88612
       H    17.76072    9.07153   -3.02617
       O    18.31556    8.36948   -3.41390
      H1    17.76929    7.80281   -3.89101
       H    19.41809   14.15186    4.96525
       O    18.77511   14.05391    4.29681
      H1    18.80947   13.08771    4.15759
       H    15.69777    7.34435    0.03665
       O    14.77543    7.29706   -0.27463
      H1    14.66949    6.77032   -1.09949
       H    13.52440   10.07797   -0.94263
       O    14.39490    9.98820   -0.51806
      H1    14.61962    9.04900   -0.61909
       H    14.12651   13.26297   -0.69340
       O    14.55083   12.75992   -0.03466
      H1    14.28733   11.89177   -0.32381
       H    14.83862   10.10906    3.63002
       O    13.85329   10.19430    3.59524
      H1    13.55290   10.25748    4.49701
       H    16.96327    6.86353    1.86867
       O    17.36827    7.37285    1.13114
      H1    17.89648    6.70214    0.61288

