45
frame 8 | Written by MDAnalysis XYZWriter (release 2.4.3)
       H    14.97463    2.62279  -17.36329
       O    15.63613    3.15430  -17.83846
      H1    16.13681    2.58319  -18.42788
       H    13.12018    1.22380  -17.43238
       O    13.76333    1.47044  -16.72761
      H1    13.80819    0.77493  -16.07434
       H    15.14627    6.94484  -17.06188
       O    15.42134    7.65230  -17.75960
      H1    15.92617    7.13045  -18.39311
       H    12.53174    3.31514  -13.54927
       O    12.94801    2.89944  -12.80565
      H1    13.88789    2.93281  -13.00430
       H    11.95978    6.31703  -15.62249
       O    12.20527    6.13007  -16.51038
      H1    12.16883    5.14097  -16.39260
       H    13.59777    7.47064  -13.29068
       O    12.80220    7.87686  -13.05867
      H1    12.16692    7.20059  -12.81925
       H     7.60627    4.77449  -16.63668
       O     7.45749    5.21964  -15.76130
      H1     8.27486    5.79379  -15.74823
       H     9.72486    1.17509  -16.56812
       O     9.43883    2.02436  -16.21915
      H1     9.40292    1.82162  -15.31934
       H    11.12169    6.00667  -19.33577
       O    10.53248    5.85420  -18.56837
      H1    11.13645    6.08397  -17.81727
       H     9.07203    3.43434  -17.34576
       O     8.51165    3.88249  -18.04524
      H1     9.10778    4.60117  -18.30138
       H    15.22058    3.68723  -14.48885
       O    15.46028    3.06699  -13.81736
      H1    15.66843    2.25863  -14.16125
       H    10.05426    6.29360  -11.89029
       O    10.95692    5.97328  -12.00837
      H1    11.13352    5.54333  -11.19873
       H     9.40886    7.89389  -16.04639
       O     9.61110    7.12662  -15.47173
      H1     9.47435    7.52232  -14.62133
       H    12.73861    2.75182  -16.23833
       O    12.03283    3.32343  -15.86404
      H1    11.20634    2.89799  -15.90196
       H    16.20993    5.57635  -16.05584
       O    15.27292    5.37535  -16.02295
      H1    15.18132    4.66764  -16.65505

