45
frame 9 | Written by MDAnalysis XYZWriter (release 2.4.3)
       H   -17.76999    1.37099   10.61577
       O   -18.22789    1.06381   11.44796
      H1   -18.24085    1.80203   12.11405
       H   -12.10725    1.40119   12.15945
       O   -12.39145    0.65406   12.70076
      H1   -11.95970    0.76021   13.58342
       H   -16.71417    3.58879    6.44042
       O   -17.11222    2.77016    6.87067
      H1   -18.03001    2.96111    7.04901
       H   -13.27521    1.98543    9.50613
       O   -12.60917    2.41759    8.90031
      H1   -12.43081    1.67021    8.29655
       H   -14.97152    3.25392   12.50847
       O   -15.40621    3.64934   13.23934
      H1   -15.45954    4.57052   12.96065
       H   -18.42305    3.09174   14.32438
       O   -18.21005    3.39651   13.45117
      H1   -17.25472    3.53428   13.58420
       H   -14.85490    1.34337   11.44352
       O   -14.59710    2.10540   10.96575
      H1   -15.20883    2.05798   10.20889
       H   -16.96542    1.75625    8.42176
       O   -16.73645    1.39165    9.32315
      H1   -16.15164    0.60277    9.13247
       H   -12.73003   -0.87640   11.57476
       O   -12.78416   -1.58696   10.89801
      H1   -13.64645   -1.47252   10.48721
       H   -15.24959   -0.91887   12.21113
       O   -15.03628   -0.13337   12.68846
      H1   -14.03540    0.00306   12.80271
       H   -11.96064   -0.49430    7.81122
       O   -12.83267   -0.02484    7.71891
      H1   -13.20180   -0.22890    6.89436
       H   -14.10629   -0.46956    8.66187
       O   -14.93677   -0.82724    9.08971
      H1   -15.08043   -1.58707    8.52948
       H   -12.22032    3.36255   11.24859
       O   -11.46325    2.99688   11.68894
      H1   -11.51917    3.24472   12.61094
       H   -17.99285   -0.42389   12.70580
       O   -17.89902   -1.35034   12.92427
      H1   -18.24581   -1.40723   13.83556
       H   -12.64290    5.30978    7.62670
       O   -13.15059    4.56987    7.26913
      H1   -13.07232    3.89573    7.97227

