45
frame 9 | Written by MDAnalysis XYZWriter (release 2.4.3)
       H   -14.18597   14.84087    4.07719
       O   -14.17493   14.99530    5.00265
      H1   -14.90602   15.51147    5.34181
       H   -16.11538   13.16360    5.19493
       O   -16.61075   13.49534    4.44970
      H1   -16.04347   13.07018    3.76354
       H   -18.28351   10.42358    7.54682
       O   -17.94392   10.45502    8.45279
      H1   -17.89805   11.41328    8.61689
       H   -17.78547   14.53499    3.53351
       O   -18.50635   15.04778    3.15458
      H1   -19.31137   14.90699    3.66831
       H   -17.31022   17.15500    9.86597
       O   -18.11695   17.70529    9.99560
      H1   -18.88264   17.31889    9.45610
       H   -16.62184   17.85078    3.87968
       O   -17.45034   17.51287    4.29173
      H1   -17.74906   16.91798    3.56198
       H   -15.63064   16.80617    6.63623
       O   -16.16486   15.98963    6.49781
      H1   -16.50566   16.18164    5.59084
       H   -17.89973   12.28455    5.19747
       O   -18.59327   11.65062    5.47152
      H1   -18.69072   11.18094    4.62665
       H   -18.11343   13.60270    9.86538
       O   -17.68859   13.12111    9.13293
      H1   -18.15287   13.47663    8.34220
       H   -14.96093   13.78426   11.56637
       O   -15.07933   13.49029   10.70435
      H1   -15.55433   14.22913   10.20201
       H   -14.47805   13.34248    5.82585
       O   -14.81691   12.67569    6.42625
      H1   -14.90169   11.90514    5.81316
       H   -16.58168   14.98679    8.68974
       O   -16.36931   15.62501    9.38610
      H1   -15.44018   15.85869    9.28304
       H   -18.02846   15.26793    6.78818
       O   -18.88812   14.87441    7.06055
      H1   -19.45958   15.69633    7.06098
       H   -18.92489   16.64014   11.69149
       O   -19.18580   16.82683   12.61460
      H1   -18.82961   17.70737   12.87652
       H   -19.13770   14.69972   12.14887
       O   -18.80182   14.36057   11.27408
      H1   -19.69780   14.32518   10.87897

