45
frame 9 | Written by MDAnalysis XYZWriter (release 2.4.3)
       H   -13.13031  -13.07554  -18.39625
       O   -13.98674  -13.06044  -18.90902
      H1   -14.39370  -12.22515  -18.54906
       H   -11.48319  -14.58533  -17.61248
       O   -11.97972  -13.83476  -17.25333
      H1   -11.30578  -13.24730  -16.95231
       H   -15.68361   -9.88673  -14.66756
       O   -15.31659   -9.34067  -13.96006
      H1   -15.12751   -9.89367  -13.18152
       H   -17.86518  -13.38123  -17.39843
       O   -17.56274  -14.19123  -16.93732
      H1   -16.76761  -13.88452  -16.39734
       H   -14.42130  -10.36261  -17.20241
       O   -15.15675  -10.87048  -17.58981
      H1   -15.82289  -10.81658  -16.94736
       H   -18.47475  -10.14280  -18.60596
       O   -18.70161   -9.22931  -18.95417
      H1   -18.08640   -8.62707  -18.50908
       H   -14.89224  -12.62743  -15.94771
       O   -15.22039  -13.54190  -15.82161
      H1   -14.51895  -14.14518  -15.53872
       H   -11.84341   -8.10806  -16.58178
       O   -11.30704   -7.43663  -16.92941
      H1   -10.53387   -7.87979  -17.39889
       H   -12.38681  -10.80245  -19.54468
       O   -11.67977  -11.00331  -18.94942
      H1   -11.32755  -11.86986  -19.23247
       H   -18.35467  -12.03453  -19.08008
       O   -18.40366  -11.92121  -18.14115
      H1   -19.32636  -11.62693  -18.10843
       H   -15.10631  -14.35649  -18.79712
       O   -15.75072  -15.06469  -18.84841
      H1   -16.38346  -14.93489  -18.17827
       H   -14.18354   -5.64881  -17.70248
       O   -14.19800   -6.56284  -17.52585
      H1   -13.26938   -6.77504  -17.81450
       H   -15.70673   -7.15002  -18.21797
       O   -16.43678   -7.06492  -18.93993
      H1   -16.35423   -6.17856  -19.19362
       H   -16.97897  -11.89748  -14.64256
       O   -17.05919  -11.21432  -15.30233
      H1   -17.98776  -11.26485  -15.45488
       H   -12.13968  -10.46951  -17.15729
       O   -12.78641  -10.08316  -16.63129
      H1   -12.46650  -10.04973  -15.74324

