45
frame 9 | Written by MDAnalysis XYZWriter (release 2.4.3)
       H     7.89801    9.53615  -12.57777
       O     8.75867    9.78249  -12.20282
      H1     8.59793   10.50665  -11.62662
       H     8.99684   13.31365  -12.39474
       O     8.21039   13.85106  -12.63691
      H1     7.91817   13.60285  -13.52623
       H     4.46854   10.75864  -10.28454
       O     5.19138   10.24133  -10.57173
      H1     5.99989   10.77528  -10.59012
       H     7.43598    9.43800  -16.83813
       O     8.37271    9.06261  -16.84625
      H1     9.02658    9.73802  -17.02987
       H     4.87089   14.11712  -13.11781
       O     4.75181   13.37929  -12.48722
      H1     3.80428   13.18194  -12.45243
       H     4.18794   13.17279  -17.34616
       O     4.89041   13.17489  -16.68622
      H1     4.79365   12.31451  -16.23247
       H    10.79247   10.47035  -14.26150
       O     9.98710   11.02358  -14.13907
      H1     9.55307   10.41164  -13.42310
       H     8.33725    7.91447  -15.54682
       O     8.33260    7.23798  -14.86301
      H1     9.27740    6.88162  -14.91598
       H     7.85336   11.97034   -9.85005
       O     7.50055   11.66814  -10.74410
      H1     7.22198   12.41720  -11.25632
       H     5.43785   12.30156  -13.79286
       O     5.73244   11.47386  -14.25862
      H1     5.78079   10.67840  -13.69370
       H     6.17925    8.59857  -18.24250
       O     5.81149    9.33941  -17.70906
      H1     5.89965   10.23050  -18.15995
       H     5.37495    8.58175  -13.33388
       O     6.11095    8.99936  -12.89948
      H1     5.75376    9.36853  -12.05348
       H     2.37149   10.83504  -14.06615
       O     2.65733    9.99161  -13.74604
      H1     2.19379    9.75249  -12.89216
       H     8.71145   12.04059  -15.03438
       O     7.87726   12.53693  -15.19343
      H1     7.16785   11.95251  -14.96801
       H     5.15474    8.54863  -15.59716
       O     4.30183    8.31572  -15.32871
      H1     3.79871    9.09460  -14.96611

