45
frame 10 | Written by MDAnalysis XYZWriter (release 2.4.3)
       H     7.26903    9.06484   10.59184
       O     7.10562    8.11929   10.53292
      H1     6.86948    7.86647    9.61966
       H     0.64981    9.05557    6.27567
       O     1.59780    8.96478    6.21510
      H1     1.90731    9.87142    6.38297
       H     3.37365   11.92869    6.27356
       O     2.70972   11.42960    6.78137
      H1     3.06827   11.43866    7.66937
       H     0.19022    9.35040   11.00196
       O    -0.31385   10.18095   11.13556
      H1    -0.69950   10.45413   10.31428
       H     5.28768    7.39402   13.14678
       O     5.58930    6.96966   12.32526
      H1     6.27524    7.48169   11.82085
       H     7.11099    8.40578    6.78088
       O     6.72309    8.90970    7.49450
      H1     7.08734    9.83484    7.41507
       H     5.91266   13.68152   10.75004
       O     5.79644   12.73477   10.96951
      H1     5.10589   12.52001   10.36732
       H     1.06785   14.11143   10.73069
       O     1.93697   14.03077   11.11835
      H1     2.25816   13.14647   10.96742
       H     7.16856   11.60376   10.66827
       O     7.76290   10.80428   10.84130
      H1     8.64068   11.19307   10.95352
       H     1.94578    7.75435   10.40641
       O     1.87339    8.11624   11.33068
      H1     1.60600    7.33891   11.81055
       H     3.57649    8.94603   11.87511
       O     4.20852    9.57311   11.68071
      H1     4.85003    9.60272   12.42932
       H     3.30182    7.38079    8.49937
       O     2.39865    7.13091    8.25603
      H1     2.13068    7.72951    7.55509
       H     4.23441    5.77032    9.68098
       O     4.70770    6.63121    9.51771
      H1     5.02625    6.93708   10.40460
       H     3.28306   10.72691   12.61700
       O     2.72847   11.32172   13.13336
      H1     3.24886   12.08009   13.36554
       H     2.53179   10.99742    9.87021
       O     3.44037   11.34177    9.59211
      H1     4.05039   10.63033    9.72732

