45
frame 1 | Written by MDAnalysis XYZWriter (release 2.4.3)
       H   -15.37153   11.83840    1.38807
       O   -16.26744   12.03292    1.59470
      H1   -16.50417   12.67837    0.91687
       H   -17.65368   13.89654   11.41143
       O   -17.70837   12.96701   11.11201
      H1   -18.51420   12.88009   10.59376
       H   -18.48604   12.64413    4.72016
       O   -18.69035   12.17261    5.53384
      H1   -18.42320   12.87468    6.14010
       H   -13.62441   10.41927    9.01422
       O   -14.56953   10.37832    8.86033
      H1   -15.01304   11.27852    9.00317
       H   -15.93541    9.73233    7.90958
       O   -16.65335    9.14462    7.67330
      H1   -17.34580    9.24494    8.35396
       H   -17.03952   13.10162    2.84452
       O   -17.66186   13.55879    3.46436
      H1   -17.21050   14.41222    3.56535
       H   -14.35289   15.04264    7.83312
       O   -14.73913   15.40906    7.01924
      H1   -14.86477   14.63960    6.43178
       H   -17.14563   10.59027    2.20793
       O   -17.75948    9.81751    2.18376
      H1   -17.44379    9.21882    2.83433
       H   -19.01757   14.06796    8.28255
       O   -18.39495   14.26905    7.55808
      H1   -18.85497   14.91348    6.95841
       H   -17.31228    7.36439    6.97093
       O   -17.73016    6.48256    6.79660
      H1   -18.48474    6.59811    6.21203
       H   -15.06304   11.89768    5.80226
       O   -15.63393   12.66470    5.92098
      H1   -16.53393   12.36439    5.91031
       H   -17.37499   15.16528    8.81209
       O   -17.36296   15.91749    9.40874
      H1   -16.67892   15.83941   10.14316
       H   -18.77739   16.58905    5.49257
       O   -19.43413   15.81726    5.59759
      H1   -20.15170   16.13250    6.20296
       H   -19.36576    8.63842    8.18367
       O   -19.08969    8.68810    9.07714
      H1   -19.26115    7.79211    9.44591
       H   -16.68902   12.86943    9.64179
       O   -15.94974   12.62685    9.09846
      H1   -16.15341   12.77264    8.14531

