45
frame 10 | Written by MDAnalysis XYZWriter (release 2.4.3)
       H     6.63031    9.86380  -12.77899
       O     7.51538   10.13357  -12.40844
      H1     7.24656   10.47914  -11.47226
       H     9.25479   13.31579  -11.27726
       O     8.74647   13.55278  -12.03850
      H1     8.93036   12.98653  -12.81011
       H    10.40120   13.10446   -9.22638
       O    10.51127   12.89300  -10.14699
      H1     9.98094   12.13512  -10.30802
       H     3.39724    9.95463  -10.16283
       O     4.16347    9.67884  -10.68635
      H1     4.93922   10.21485  -10.35170
       H     7.77417   15.42175   -9.81806
       O     7.06384   15.25556  -10.45450
      H1     7.49522   14.66409  -11.05522
       H     5.73244   13.53883  -12.88047
       O     5.34936   13.04847  -12.11386
      H1     4.43341   13.30062  -12.18029
       H     7.87680    8.41319  -12.20186
       O     8.13314    7.48025  -12.36294
      H1     8.48569    7.47498  -13.29380
       H     9.87639   10.21958   -8.94962
       O     9.76671   10.21362   -9.88241
      H1     9.83877    9.28849  -10.17793
       H     8.61856    6.96043   -8.23556
       O     8.62784    7.80278   -8.66278
      H1     7.71312    8.13608   -8.46054
       H     6.87580   11.11402   -9.14335
       O     6.45498   11.07299  -10.01835
      H1     6.56002   11.93877  -10.35529
       H     5.49004    9.10263   -8.63852
       O     6.01848    8.61660   -7.95011
      H1     5.43511    7.92533   -7.70401
       H     4.39809   11.90540  -13.52200
       O     4.38361   11.25975  -14.24319
      H1     4.94810   10.58780  -13.94547
       H     7.45989   12.49628   -6.85271
       O     7.93199   11.95055   -7.46876
      H1     8.21825   11.16997   -6.99945
       H     5.12334    8.01693  -12.91840
       O     5.21622    8.93477  -13.04560
      H1     4.77258    9.31306  -12.24290
       H     9.77461   11.67517  -14.09125
       O     8.81325   11.59851  -14.37199
      H1     8.36780   11.07341  -13.68482

