45
frame 10 | Written by MDAnalysis XYZWriter (release 2.4.3)
       H     8.74725   -4.07763  -15.64300
       O     8.32813   -3.22453  -15.79071
      H1     7.88758   -2.93352  -14.95954
       H    14.18376    1.27035  -15.03557
       O    14.43617    0.93508  -15.88611
      H1    15.33229    0.49828  -15.74186
       H    13.46039    2.14057  -18.82951
       O    14.03672    2.47989  -18.14841
      H1    14.01603    1.93876  -17.33251
       H     8.23478    1.46900  -16.41623
       O     7.34129    1.44236  -16.76352
      H1     7.30442    0.68862  -17.30135
       H    10.72293    0.08202  -17.63103
       O    11.45155   -0.09803  -17.06287
      H1    11.39849   -1.08095  -16.98519
       H    10.48490    0.94812  -16.02930
       O     9.87200    1.52312  -15.51075
      H1     9.52713    0.94081  -14.81726
       H    14.31358   -2.02506  -18.22627
       O    13.44979   -1.63669  -18.47254
      H1    13.20515   -1.02827  -17.74861
       H    10.77591   -2.85097  -13.21330
       O    11.68472   -3.12382  -13.26096
      H1    12.09850   -2.31071  -13.56880
       H     9.45684   -1.11897  -12.86830
       O     9.17304   -0.29496  -13.35695
      H1     9.38483    0.43966  -12.76889
       H    11.37738   -2.81715  -15.72109
       O    10.90021   -2.72884  -16.56936
      H1     9.98894   -2.72355  -16.25709
       H     9.85320    2.19284  -18.74517
       O    10.06975    1.33983  -19.16670
      H1    11.04168    1.40520  -19.23571
       H    14.29361   -1.96971  -14.47474
       O    13.53434   -1.43341  -14.01294
      H1    13.56616   -0.53617  -14.37405
       H    11.71831   -4.40338  -18.87091
       O    11.75795   -3.57954  -19.33740
      H1    12.34009   -2.98546  -18.78810
       H     8.05179   -3.50018  -17.49110
       O     8.24212   -3.76409  -18.38530
      H1     8.90116   -3.10793  -18.62926
       H     6.96917   -1.76371  -18.18093
       O     7.25195   -0.91321  -18.50800
      H1     8.18071   -1.00513  -18.76584

