45
frame 10 | Written by MDAnalysis XYZWriter (release 2.4.3)
       H   -10.29443    8.55544  -10.95782
       O    -9.65235    8.28093  -11.63468
      H1    -9.95690    7.38547  -11.86865
       H    -8.90319    9.07246   -8.05936
       O    -8.11674    8.55693   -8.33791
      H1    -8.37252    7.62840   -8.53635
       H    -9.77531    6.19734   -7.32861
       O    -9.49037    5.93659   -8.18777
      H1    -9.26450    4.97941   -8.12430
       H   -13.36114    1.40442  -10.64924
       O   -12.85622    2.22252  -10.64361
      H1   -12.94742    2.61421   -9.77156
       H   -14.04100    8.23018  -11.49139
       O   -13.62178    8.75859  -12.17851
      H1   -13.77490    9.70612  -12.07450
       H   -11.96201    8.94817   -7.22143
       O   -12.79024    8.59405   -7.60424
      H1   -13.43317    9.21132   -7.31357
       H   -12.21386    8.83741   -9.32029
       O   -11.91943    8.69926  -10.20536
      H1   -12.65519    8.90445  -10.77173
       H   -10.06325    5.50196  -13.82340
       O    -9.86034    5.96076  -14.63346
      H1    -8.98151    5.64879  -14.93353
       H   -10.62367    5.29984  -11.35769
       O   -10.48610    4.67846  -12.13447
      H1   -11.39452    4.38631  -12.37757
       H   -14.46708    6.74235   -9.21681
       O   -15.07602    7.41670   -9.64873
      H1   -15.45374    6.96541  -10.41680
       H   -13.79466    5.69088   -7.45389
       O   -13.84054    5.43750   -8.37295
      H1   -12.95262    5.52342   -8.74296
       H    -9.46679    3.36931  -11.56075
       O    -8.72361    2.74558  -11.34920
      H1    -8.11753    2.99127  -12.01390
       H   -13.04185    2.41755   -7.23012
       O   -13.59663    2.54488   -8.04634
      H1   -13.96787    3.44754   -7.94912
       H   -11.72978    6.85795   -9.98371
       O   -11.51425    5.91743   -9.85122
      H1   -10.75208    5.97180   -9.25695
       H   -13.78086    4.30737  -13.19816
       O   -13.03134    3.73071  -12.96134
      H1   -13.22850    3.29368  -12.10543

