45
frame 1 | Written by MDAnalysis XYZWriter (release 2.4.3)
       H     4.86328  -15.90145  -15.19586
       O     5.37057  -15.39144  -14.52830
      H1     6.03673  -16.03261  -14.18492
       H     4.98122  -15.22897  -18.82417
       O     5.50808  -15.85573  -19.29492
      H1     6.02318  -15.25122  -19.85560
       H     3.23897  -16.44688  -16.58592
       O     4.12291  -16.73810  -16.44805
      H1     3.97694  -17.54446  -15.85486
       H     5.53154  -12.16463  -15.34291
       O     5.95797  -12.73733  -16.02962
      H1     5.96113  -13.52873  -15.47031
       H     0.86438  -10.55150  -18.60573
       O     1.69790  -10.74667  -19.04843
      H1     2.41035  -10.57029  -18.37634
       H     1.39508  -14.91332  -16.47540
       O     1.81798  -15.29044  -17.25778
      H1     2.39378  -14.61538  -17.64660
       H     0.64397  -13.79135  -14.67549
       O     1.29334  -13.16876  -15.03432
      H1     0.73132  -12.40002  -15.15476
       H     5.03612   -9.08610  -17.83019
       O     5.96635   -8.84874  -18.07576
      H1     6.04689   -7.90537  -17.87128
       H     3.85326  -13.41783  -19.11999
       O     4.12515  -13.87004  -18.25304
      H1     4.83329  -13.41202  -17.78883
       H     5.31215  -10.21991  -14.28495
       O     4.71996  -10.99607  -14.58576
      H1     4.27861  -11.35258  -13.82282
       H     5.02286  -19.71040  -18.23552
       O     4.02360  -19.61358  -18.40148
      H1     3.81459  -18.69897  -18.26418
       H     2.68237   -9.00167  -16.84645
       O     3.33321   -9.69244  -17.10162
      H1     3.77749   -9.97036  -16.37097
       H     7.52003  -12.11919  -17.60884
       O     7.93854  -12.65214  -18.30265
      H1     7.64839  -13.54457  -18.19238
       H     0.12859  -17.79194  -18.41659
       O     0.07793  -17.34896  -17.57906
      H1     0.76351  -16.67479  -17.56950
       H     8.24278  -16.94963  -18.50855
       O     8.03139  -16.20531  -17.89408
      H1     7.13617  -15.95216  -18.20157

