45
frame 10 | Written by MDAnalysis XYZWriter (release 2.4.3)
       H    -1.22799   10.18838  -15.27999
       O    -0.36484   10.55214  -15.66257
      H1    -0.51388   10.82803  -16.57049
       H    -0.37068    5.23182  -17.85770
       O    -0.16220    5.33370  -18.78082
      H1     0.30898    6.15140  -18.78693
       H     2.46153    8.78549  -18.64715
       O     2.44641    8.29674  -19.44094
      H1     2.72150    8.92053  -20.14604
       H     0.56578    8.64269  -19.41119
       O    -0.32445    9.03615  -19.51845
      H1    -0.89122    8.50092  -18.93393
       H     2.64724    5.69108  -15.37225
       O     1.94939    5.68565  -14.70308
      H1     1.37445    4.84145  -14.82923
       H    -0.05357   12.78166  -19.34182
       O    -0.10050   13.59382  -18.72460
      H1    -0.84829   13.45234  -18.07687
       H     0.44108    8.91362  -16.25919
       O     0.64968    7.96250  -16.31745
      H1     1.23724    7.91372  -15.54370
       H     3.10262    9.71719  -16.38047
       O     3.31843   10.01125  -17.25588
      H1     4.22011    9.74166  -17.57292
       H     2.65214    4.51089  -18.67312
       O     2.41893    3.72608  -18.11527
      H1     1.66830    3.32703  -18.49929
       H    -3.37677    6.98139  -19.26882
       O    -2.47876    7.06380  -18.92638
      H1    -1.87428    6.32255  -19.19772
       H     6.48901    8.36651  -18.52603
       O     5.78797    9.12359  -18.50560
      H1     6.15440    9.86602  -19.01563
       H     1.35864   13.25419  -18.00569
       O     1.91724   12.78514  -17.37772
      H1     2.41373   12.11853  -17.82757
       H     7.28886    6.48641  -19.10896
       O     7.57619    7.14311  -18.40967
      H1     7.88552    6.55504  -17.66557
       H     3.22512    9.89579  -14.26445
       O     2.73183    9.08577  -14.46389
      H1     2.32090    8.80052  -13.65201
       H     3.83792    6.79622  -17.30400
       O     4.00938    6.74487  -16.36653
      H1     4.24594    7.62222  -16.10672

