45
frame 10 | Written by MDAnalysis XYZWriter (release 2.4.3)
       H    -1.83038    2.17601    1.52820
       O    -1.76452    3.08492    1.15270
      H1    -1.88245    3.02852    0.22213
       H     1.99934    4.43961    1.31099
       O     2.44311    3.67344    1.62096
      H1     2.11730    3.00848    1.03400
       H     1.51246    0.82921    0.02469
       O     2.01792    1.67485   -0.00022
      H1     1.66904    2.24625   -0.68820
       H    -4.77747    6.56343    1.38981
       O    -4.19063    5.81662    1.68431
      H1    -3.64952    6.33534    2.29829
       H    -2.37366    2.59756    4.75124
       O    -3.21291    3.03036    5.01376
      H1    -3.75978    2.68124    4.30777
       H     0.14642    5.94872    1.18972
       O     1.10926    5.97385    1.34522
      H1     1.35680    6.90481    1.33262
       H    -2.05535    6.45382    1.05088
       O    -1.41931    6.00751    0.50452
      H1    -1.50696    5.10316    0.89946
       H    -5.27989    2.11893    2.19323
       O    -5.40841    1.92914    3.11207
      H1    -6.22763    1.33733    3.14124
       H    -2.83443    1.19522   -1.42903
       O    -1.88170    1.39702   -1.36654
      H1    -1.89527    2.35186   -1.52996
       H    -2.68550    4.75404    4.67172
       O    -2.53401    5.68186    4.37749
      H1    -3.18134    6.14094    5.01337
       H    -1.83943    4.86242   -1.16639
       O    -1.62927    4.10487   -1.76962
      H1    -0.65041    4.19247   -2.00431
       H    -0.73428   -0.20226    1.74866
       O    -1.42639    0.29749    2.29336
      H1    -1.15854    0.44717    3.20923
       H    -5.43347    3.75034    0.43127
       O    -4.76414    3.07056    0.42320
      H1    -3.90426    3.45657    0.62976
       H    -0.45447   -1.12460    0.26525
       O     0.07856   -0.46021   -0.19574
      H1    -0.54025    0.11453   -0.58759
       H    -4.99159    1.54409   -2.22308
       O    -4.64248    1.20955   -1.43606
      H1    -4.73947    1.91904   -0.75713

