45
frame 10 | Written by MDAnalysis XYZWriter (release 2.4.3)
       H    11.40088   -9.01526  -11.07593
       O    11.66027   -8.40811  -10.32804
      H1    12.21536   -7.64469  -10.60692
       H     9.27849  -10.54662   -4.45652
       O     9.82639  -11.33175   -4.46272
      H1    10.30903  -11.19436   -5.28839
       H     5.22611  -12.64899   -8.44256
       O     5.87184  -12.51881   -7.72453
      H1     5.24874  -12.38869   -6.96928
       H    10.83506  -12.85421  -10.81462
       O     9.95453  -12.68909  -10.40300
      H1     9.51271  -13.50033  -10.67353
       H     6.61386  -13.95364   -8.10066
       O     7.10046  -14.80546   -7.96580
      H1     6.95817  -15.37363   -8.67568
       H    13.51164  -10.83442   -5.78256
       O    13.72395  -11.74941   -6.04181
      H1    14.38111  -11.73117   -6.73240
       H    13.00453   -9.67662  -10.10124
       O    13.66474  -10.41414  -10.09357
      H1    13.31694  -11.09889  -10.70061
       H    10.41476  -17.14750   -7.16009
       O    10.83202  -16.34536   -6.93330
      H1    10.15892  -15.65725   -6.95210
       H     9.22321  -10.91999   -8.15836
       O     9.94167  -11.50107   -7.96402
      H1    10.16263  -11.98859   -8.76772
       H     9.39051   -8.06586   -7.16531
       O     8.99253   -7.21326   -7.48912
      H1     9.41222   -6.96539   -8.29951
       H    10.33586  -11.16926  -11.22173
       O    10.64806  -10.45851  -11.79920
      H1    10.88180  -10.92506  -12.60404
       H     7.17792  -10.72060   -8.89110
       O     7.79959   -9.98680   -8.72723
      H1     7.86856   -9.47405   -9.51586
       H    11.42498   -9.10588   -5.90408
       O    10.68308   -9.25693   -6.51796
      H1    10.80470  -10.16152   -6.84718
       H     6.95406   -9.43842   -7.11390
       O     6.47395   -9.04335   -6.41077
      H1     6.95025   -9.38685   -5.65634
       H     8.39204  -14.20641   -7.25520
       O     9.23861  -14.10823   -6.70043
      H1     9.60936  -13.29484   -7.12006

