45
frame 9 | Written by MDAnalysis XYZWriter (release 2.4.3)
       H    18.08668   18.18506  -16.53352
       O    18.72431   17.62144  -17.07862
      H1    18.68841   17.93839  -17.96806
       H    17.24324   15.95280  -16.40700
       O    17.16691   15.44739  -15.51609
      H1    16.70655   14.62669  -15.65058
       H    14.91214   20.04899  -19.46215
       O    15.08910   19.27969  -18.94458
      H1    15.90847   18.93157  -19.21418
       H    16.63397   16.42838  -14.31130
       O    16.41914   17.15915  -13.73931
      H1    15.60047   17.55045  -14.16194
       H    13.22892   16.77183  -11.70838
       O    13.60478   16.72528  -10.80039
      H1    14.10170   15.94917  -10.71678
       H    13.16024   17.92007  -18.73060
       O    12.36743   17.42177  -18.77716
      H1    12.18689   17.51276  -19.70669
       H    18.50812   18.93610  -11.70301
       O    17.70723   18.82477  -12.18002
      H1    17.75009   18.09604  -12.73117
       H    10.51609   15.69860  -16.28472
       O     9.89553   15.63386  -17.02152
      H1     9.05021   15.87941  -16.54909
       H    12.99572   15.05899  -16.01346
       O    12.44916   15.86524  -15.95247
      H1    12.29776   16.18942  -16.88789
       H    12.20606   16.51514  -14.03579
       O    12.12391   16.47288  -13.10628
      H1    11.13712   16.38286  -13.05613
       H    17.18103   18.74198  -14.42366
       O    17.54086   19.31828  -15.09406
      H1    18.39288   19.66313  -14.76657
       H    10.57932   19.41196  -14.68859
       O    11.24200   19.42252  -13.98013
      H1    12.06499   19.22645  -14.41152
       H    11.59675   13.76984  -11.70823
       O    12.39519   14.22435  -11.91076
      H1    12.21371   15.00284  -12.43077
       H    14.30908   18.67488  -15.55938
       O    14.30891   17.76849  -15.12448
      H1    13.70148   17.24847  -15.65349
       H    15.77996   15.25782  -19.00359
       O    16.54377   15.38451  -18.40667
      H1    16.86383   14.45610  -18.27510

