45
frame 10 | Written by MDAnalysis XYZWriter (release 2.4.3)
       H    14.01374  -13.30020    4.27157
       O    13.22865  -13.05821    3.79167
      H1    12.71760  -13.87582    3.73241
       H    11.46193  -14.13599    1.88237
       O    11.39767  -14.78474    2.59150
      H1    11.83374  -15.59244    2.30205
       H     7.49053  -15.19957    5.34860
       O     7.11066  -15.96447    4.89519
      H1     7.76673  -15.98124    4.17157
       H     8.76002  -15.88831   -0.71532
       O     9.46668  -15.42736   -0.31592
      H1     9.30904  -15.55686    0.62673
       H    12.09131  -18.12301   -0.69114
       O    11.95767  -18.98095   -0.23780
      H1    11.67702  -19.57555   -0.97912
       H     8.55172  -18.22564   -2.74136
       O     8.33902  -18.50859   -1.83383
      H1     7.55295  -17.89180   -1.78612
       H     8.46750  -14.30277    2.94213
       O     8.68805  -15.17862    2.59824
      H1     9.65750  -15.16304    2.64316
       H    11.97663  -16.46026   -2.31799
       O    12.50394  -16.49623   -1.41416
      H1    11.88773  -16.00937   -0.81544
       H     7.12863  -19.36337    1.99217
       O     8.04555  -19.53922    1.94079
      H1     8.31414  -19.53162    2.84262
       H    13.52830  -18.79283    5.42699
       O    13.96996  -18.95662    6.32354
      H1    13.31252  -19.08732    7.01731
       H     9.44681  -19.68712    4.75335
       O     8.88625  -18.96509    4.99655
      H1     9.28999  -18.47350    5.73745
       H    13.97901  -17.98016    2.71266
       O    14.49354  -18.34362    3.46168
      H1    15.11430  -17.58751    3.63500
       H    13.80602  -16.82335    0.74657
       O    13.30984  -16.75212    1.60828
      H1    12.62382  -17.44808    1.56260
       H    10.72156  -18.33251    1.25567
       O    10.89326  -18.06180    2.21629
      H1    10.17696  -18.48024    2.72053
       H     6.06809  -19.55191    5.48690
       O     6.41859  -18.81571    6.02676
      H1     7.30977  -18.78603    5.69503

