45
frame 10 | Written by MDAnalysis XYZWriter (release 2.4.3)
       H    -6.76673   -4.35386  -16.88021
       O    -7.41837   -4.92359  -16.50701
      H1    -8.08014   -4.37303  -16.09809
       H    -5.97199   -1.04420  -13.86160
       O    -6.58876   -0.43358  -14.31252
      H1    -6.98525    0.05965  -13.57899
       H    -2.30174   -0.95896  -15.13668
       O    -2.97789   -1.68183  -15.04870
      H1    -3.78846   -1.16389  -15.10288
       H    -5.06162   -3.60838  -16.30168
       O    -5.41995   -3.32969  -17.21321
      H1    -4.69083   -3.20399  -17.81735
       H    -2.15634    0.97481  -18.87248
       O    -2.36214    0.04480  -18.96838
      H1    -2.56902   -0.19955  -19.88227
       H    -9.30866    2.05143  -15.01198
       O    -8.49011    1.56050  -14.95978
      H1    -8.69893    0.72285  -15.32806
       H    -8.26898   -2.67274  -19.26592
       O    -8.79043   -1.84902  -19.28004
      H1    -9.69588   -2.13981  -19.45636
       H    -2.80468   -2.04127  -18.77349
       O    -3.11928   -2.94971  -18.54985
      H1    -2.74911   -3.52178  -19.24926
       H    -8.50162    0.30539  -19.45334
       O    -8.46743    1.22579  -19.73249
      H1    -8.59946    1.86361  -18.97797
       H    -5.97592   -0.99284  -17.36738
       O    -5.67353   -0.12005  -17.04964
      H1    -6.08423   -0.08168  -16.14179
       H    -4.26076    3.92449  -18.58228
       O    -3.88518    3.08035  -18.15522
      H1    -4.49468    2.34876  -18.44155
       H    -3.00455    5.24161  -15.69047
       O    -3.97183    5.06974  -15.71234
      H1    -4.21280    4.15911  -16.05459
       H   -10.24771   -1.37977  -17.26343
       O   -10.13192   -0.94427  -16.40147
      H1   -10.95068   -1.22227  -15.93376
       H    -5.73134    0.90359  -18.45098
       O    -5.69553    1.31897  -19.32990
      H1    -6.65323    1.47649  -19.61053
       H    -7.40727    2.94945  -14.04875
       O    -6.74311    3.21342  -13.36740
      H1    -6.53155    4.18660  -13.50809

