45
frame 10 | Written by MDAnalysis XYZWriter (release 2.4.3)
       H    -8.88433   -2.23187    2.01079
       O    -8.05553   -1.77625    1.95715
      H1    -8.16086   -0.92820    2.38770
       H    -9.50012    4.15402    5.25881
       O    -9.07652    4.36223    4.37723
      H1    -8.30300    3.79086    4.19718
       H   -10.96043    3.00793    6.89939
       O   -10.00696    2.92011    6.71837
      H1    -9.48839    3.25678    7.41748
       H    -6.77040    4.78818    1.83696
       O    -6.78144    4.71108    0.88460
      H1    -7.64709    4.31566    0.64061
       H   -10.64763    0.59738    2.93122
       O   -10.55564    1.33327    2.29725
      H1   -10.74532    0.86110    1.47088
       H   -11.46218   -1.15688    4.17936
       O   -10.64751   -0.84627    3.76214
      H1   -10.17457   -0.48505    4.54925
       H    -5.27989    2.11893    2.19323
       O    -5.40841    1.92914    3.11207
      H1    -6.22763    1.33733    3.14124
       H    -5.03464   -2.02786    4.00766
       O    -5.41444   -2.58106    3.29307
      H1    -6.28530   -2.21525    3.08194
       H    -6.04843    0.81145    5.70742
       O    -6.77529    1.26920    6.19066
      H1    -6.49596    2.15388    6.09519
       H    -9.76737    1.07720    6.30522
       O    -9.86713    0.09640    6.29603
      H1   -10.59634   -0.16059    6.91566
       H    -8.21825    0.67866    4.51569
       O    -8.10653    0.57535    3.51803
      H1    -8.86094    1.03518    3.10961
       H   -11.45813    3.39972    0.78909
       O   -11.47880    3.15443   -0.09777
      H1   -11.39093    3.99349   -0.61957
       H   -10.67675    4.04648    3.39793
       O   -11.35572    3.87601    2.72991
      H1   -11.51651    2.91414    2.81246
       H    -9.53325    3.01595   -0.13531
       O    -8.59826    3.08938   -0.27970
      H1    -8.52683    3.23101   -1.22821
       H    -8.61305   -0.08788   -0.91174
       O    -9.27182    0.60964   -0.87665
      H1    -8.86005    1.43815   -0.66418

