48
frame 1 | Written by MDAnalysis XYZWriter (release 2.4.3)
       H    14.63501  -12.81357    4.15199
       O    13.75875  -12.66009    3.66168
      H1    13.24280  -13.47531    3.81306
       H    11.31032  -15.15302    3.33131
       O    11.59068  -14.71504    4.14551
      H1    11.98705  -15.46944    4.56782
       H     9.23054  -14.31141    6.30247
       O    10.13057  -14.46885    6.56883
      H1    10.58716  -14.48116    5.70595
       H     8.92416  -15.84666    2.17630
       O     9.67913  -16.06101    2.67546
      H1     9.29395  -16.63384    3.37757
       H    12.13266  -13.21676    0.39404
       O    11.44279  -13.66877   -0.17864
      H1    11.30520  -14.55270    0.17815
       H    16.29796  -15.94600    4.38744
       O    15.56305  -15.38323    4.04731
      H1    16.01307  -14.53273    4.13228
       H    14.01010  -17.24818    8.58566
       O    13.78980  -17.86558    7.82298
      H1    13.72229  -18.74502    8.27306
       H    10.53705  -17.20475   -0.59280
       O    10.64726  -16.48360    0.06863
      H1    10.54670  -16.95342    0.84561
       H    13.45303  -19.14784    1.13901
       O    13.88896  -18.31870    1.02852
      H1    14.89614  -18.43440    1.03948
       H    14.61698  -17.88662    4.45196
       O    15.12528  -18.26355    5.17677
      H1    14.50055  -18.24228    5.94091
       H    17.53826  -15.19164    1.39549
       O    16.57621  -15.41785    1.44836
      H1    16.38269  -15.40921    2.39902
       H    17.70904  -17.05261    5.19984
       O    17.89654  -16.71643    4.30679
      H1    18.24957  -17.46535    3.82056
       H    16.71266  -17.30982    1.21444
       O    16.57682  -18.27327    1.15898
      H1    16.75126  -18.50046    0.24718
       H    13.67015  -17.33221    2.78689
       O    13.37816  -16.92298    3.66840
      H1    14.18056  -16.27388    3.84944
       H    17.00003  -16.36476    7.61469
       O    17.28404  -17.10089    7.05308
      H1    16.42227  -17.44054    6.69485
       H    10.94162  -16.13562    7.07525
       O    11.23266  -17.03471    6.93340
      H1    12.04953  -17.18672    7.35416

