48
frame 0 | Written by MDAnalysis XYZWriter (release 2.4.3)
       H     0.88054    3.53161   -8.30953
       O     1.16548    4.48194   -8.10110
      H1     0.33452    4.98713   -8.09328
       H    -2.75949    7.17158   -6.52751
       O    -2.70447    8.11861   -6.78836
      H1    -2.94380    8.15154   -7.72939
       H    -0.88250    5.58300  -14.07976
       O    -1.48374    4.93878  -14.50040
      H1    -1.45386    4.21248  -13.80198
       H    -3.98557    6.26180  -11.99229
       O    -4.30484    5.37189  -11.92743
      H1    -4.69670    5.30107  -12.79342
       H     0.56350    6.88610  -10.07217
       O     0.23037    6.02115  -10.34305
      H1     1.04888    5.47026  -10.44092
       H    -0.52365    1.21990  -11.80487
       O    -0.20318    1.82137  -11.18988
      H1    -0.82817    2.55786  -11.26747
       H    -3.26324    8.80491   -9.80925
       O    -3.45945    9.50350   -9.15393
      H1    -3.09041   10.36998   -9.33747
       H     0.21588    6.16383  -12.11206
       O     0.51937    6.29345  -13.06532
      H1     1.28199    5.73382  -13.33670
       H    -1.88546    6.54031  -10.19502
       O    -2.33116    7.34677  -10.50071
      H1    -1.65110    7.84228  -11.04041
       H    -2.83569    3.03233  -12.39903
       O    -2.18181    3.35283  -11.82058
      H1    -2.68402    4.19075  -11.53026
       H    -5.57764    4.79378  -10.50097
       O    -6.41943    4.39421  -10.22313
      H1    -6.27625    4.00850   -9.32344
       H    -2.86584    8.84645  -13.01458
       O    -3.70947    8.52295  -13.35971
      H1    -3.48806    7.89755  -14.11896
       H    -0.78925    9.03835  -13.19155
       O    -1.16633    9.12664  -12.34374
      H1    -1.06240   10.15074  -12.21542
       H    -2.26310    4.87640   -7.35375
       O    -2.40063    4.49289   -8.26017
      H1    -2.93287    3.70981   -8.04294
       H     1.36891    9.12903  -12.52330
       O     1.87788    8.53952  -13.05012
      H1     1.35632    7.75719  -13.04328
       H    -0.02268    8.92514   -8.70718
       O     0.69941    8.61945   -9.27860
      H1     1.53876    8.79299   -8.86346

