48
frame 1 | Written by MDAnalysis XYZWriter (release 2.4.3)
       H    -5.49731  -16.06603   14.60038
       O    -4.98244  -16.48237   13.88801
      H1    -4.80624  -15.69891   13.25681
       H    -9.06982  -14.06001   15.47788
       O    -8.22985  -14.48380   15.20671
      H1    -8.14766  -14.80857   14.28696
       H    -8.10311  -17.90081   14.43037
       O    -7.59280  -17.84329   13.60401
      H1    -8.14984  -17.61425   12.83537
       H    -7.98792  -14.04656   11.95223
       O    -7.78847  -14.80466   12.44551
      H1    -7.35428  -15.39856   11.83449
       H    -2.62219  -11.60296   18.70503
       O    -3.57374  -11.43107   18.54030
      H1    -3.60506  -11.27549   17.55550
       H    -1.66782  -15.78394   17.29562
       O    -2.56827  -16.23846   17.27732
      H1    -2.68708  -16.51440   16.39331
       H    -4.34764  -13.06391   15.52805
       O    -4.08525  -12.11014   15.42614
      H1    -3.60409  -12.12115   14.58351
       H    -8.77212  -16.46030   18.09136
       O    -8.18905  -16.47453   17.26908
      H1    -8.28970  -15.62720   16.66029
       H    -4.32724  -14.33586   11.59322
       O    -4.60845  -14.01393   12.49381
      H1    -5.41345  -13.49793   12.36644
       H    -7.80092  -18.09011   17.67158
       O    -7.66195  -19.05241   17.74196
      H1    -6.77756  -19.15817   17.37805
       H    -7.43270  -11.25788   13.85877
       O    -7.84997  -11.23460   12.98051
      H1    -7.47157  -10.36023   12.65398
       H   -11.09859  -12.91853   15.96835
       O   -10.28784  -13.13644   16.46989
      H1   -10.56363  -13.44134   17.37730
       H    -5.61012  -11.22996   15.54610
       O    -6.46139  -10.79393   15.41579
      H1    -6.96318  -11.03458   16.22626
       H    -5.68336  -13.86753   19.34102
       O    -5.78793  -13.01883   18.86434
      H1    -4.92936  -12.55180   18.83308
       H    -5.21885  -14.53603   17.12106
       O    -5.51145  -14.59838   16.20062
      H1    -6.44935  -14.40592   16.19091
       H    -8.86564  -12.06519   17.26381
       O    -8.02468  -11.73215   17.65828
      H1    -7.45921  -12.52936   17.71138

