48
frame 1 | Written by MDAnalysis XYZWriter (release 2.4.3)
       H     6.37203   13.27666   -1.42306
       O     5.84608   13.52390   -2.15678
      H1     6.25015   13.13318   -2.97641
       H     6.43621   13.08287   -5.16184
       O     7.19803   12.76061   -4.58663
      H1     7.08296   11.82559   -4.36046
       H     7.41138    9.48983   -4.85591
       O     7.01542   10.12097   -4.23983
      H1     6.07243    9.99542   -4.34352
       H     8.58701   10.07384   -1.45125
       O     7.76241   10.48900   -1.52922
      H1     7.60469   10.47965   -2.45040
       H     6.15294   16.97900   -2.58276
       O     6.92682   17.60546   -2.41044
      H1     7.57982   17.52838   -3.07524
       H     7.91810   16.15383   -1.33202
       O     8.45457   15.71014   -0.68878
      H1     8.19562   16.17290    0.13028
       H     5.37619    9.09618    0.45333
       O     6.15805    9.59512    0.75060
      H1     6.67657    9.90169    0.01937
       H     8.94500   12.88278   -5.04976
       O     9.87426   12.63572   -5.33324
      H1    10.14661   13.40288   -5.83601
       H     4.00507   16.43255   -2.55251
       O     4.79407   15.99984   -2.92105
      H1     4.95044   15.13763   -2.43914
       H    11.17376   13.66976   -0.31177
       O    10.42329   13.48679   -0.84082
      H1     9.76627   14.16012   -0.57748
       H     7.01022   17.02329   -5.13515
       O     7.97511   16.84760   -5.15422
      H1     8.35318   17.46540   -5.79866
       H     4.15061    8.98760   -5.45922
       O     4.31901    9.58257   -4.69246
      H1     3.66856   10.32949   -4.86890
       H     3.97209   14.87858   -4.48249
       O     4.03572   14.73490   -5.45162
      H1     3.98054   13.82055   -5.73188
       H     5.97350   13.24925   -7.73387
       O     5.35678   12.84209   -7.14765
      H1     5.27513   11.95480   -7.50983
       H     7.60139   13.59933    0.61158
       O     6.63568   13.70093    0.44852
      H1     6.55246   14.67432    0.50110
       H     2.95430   14.31217   -1.16304
       O     2.97701   13.52241   -1.73516
      H1     3.91702   13.42662   -2.03029

