48
frame 1 | Written by MDAnalysis XYZWriter (release 2.4.3)
       H    17.05310   11.86372    3.51814
       O    16.64829   11.50243    2.69033
      H1    17.34928   10.95863    2.29453
       H    16.78194    4.28580    5.91457
       O    17.35202    3.78419    6.46739
      H1    16.81073    3.69391    7.27138
       H    16.13343    6.25006    4.25952
       O    16.68566    5.46489    4.02135
      H1    17.62099    5.82940    4.24901
       H    15.05728    9.47303    8.89911
       O    15.11556    8.91959    9.67534
      H1    14.26227    8.41312    9.52843
       H    16.98714    8.63881    3.69345
       O    17.89696    8.81348    3.62860
      H1    18.07045    9.03589    2.68261
       H    18.93930    2.25959    8.46484
       O    19.20075    3.18322    8.38596
      H1    18.65090    3.43014    7.62351
       H    18.85069    9.32385    6.19226
       O    18.95399    8.47076    6.63869
      H1    18.05073    8.20496    6.94429
       H    17.96106   10.19159    4.62056
       O    18.04171   10.97008    5.18576
      H1    18.98560   11.10610    5.13313
       H    15.68084    7.15424    7.85536
       O    16.22730    7.53405    7.10295
      H1    15.69590    7.95087    6.44470
       H    17.87296   10.78184    8.64031
       O    17.90076   11.53513    8.04488
      H1    18.13725   11.18262    7.20042
       H    14.58625    7.88682    3.58773
       O    14.90593    7.68525    4.46922
      H1    14.18107    7.27098    4.94797
       H    16.16863   11.03781    7.84220
       O    15.28484   10.81236    7.68849
      H1    15.20930   10.77541    6.69092
       H    15.11623    9.57871    4.73134
       O    15.08771   10.53114    4.84104
      H1    15.58065   10.92837    4.06292
       H    18.36017    9.30169    9.97399
       O    17.62739    9.89510   10.18465
      H1    16.84016    9.33484    9.97586
       H    14.45960    5.67402    9.30845
       O    15.41798    5.92059    9.33493
      H1    15.71830    5.98030   10.27276
       H    18.96437   12.66122    8.96318
       O    19.43299   13.28279    9.55028
      H1    18.92473   13.45215   10.33507

