48
frame 0 | Written by MDAnalysis XYZWriter (release 2.4.3)
       H    -6.51489   13.50935   16.22719
       O    -5.99279   14.23564   16.58415
      H1    -6.56659   14.69801   17.16754
       H    -9.93888   13.22973   15.38106
       O    -9.46397   13.68788   14.71454
      H1    -9.12051   14.47646   15.09929
       H   -11.26422   19.48376   19.07147
       O   -10.79505   18.72424   18.81842
      H1   -10.13414   18.95621   18.14389
       H   -10.04058   16.30994   15.97738
       O    -9.09692   16.05188   15.98946
      H1    -8.79006   16.75467   15.38941
       H   -12.13389   17.77288   17.68428
       O   -12.85454   17.47815   17.13061
      H1   -13.28935   18.34748   16.92508
       H    -8.06713   13.82250   12.97850
       O    -7.14079   13.90396   12.65308
      H1    -7.11671   14.06197   11.70313
       H   -10.70498   11.46904   17.28982
       O   -11.05020   12.29049   16.84688
      H1   -11.95004   12.01478   16.55934
       H   -10.89766   14.67125   14.47926
       O   -11.83581   14.91029   14.53318
      H1   -12.29898   14.15347   14.12227
       H   -13.22447   17.61517   15.35846
       O   -13.33147   17.13556   14.52690
      H1   -12.79583   16.33882   14.60147
       H   -11.48838   13.36638   18.15797
       O   -11.76942   13.79872   18.98397
      H1   -11.08500   14.44925   19.20539
       H    -6.22807   16.81747   14.68077
       O    -6.53472   17.62985   15.08241
      H1    -5.94808   18.30994   14.67155
       H    -6.41097   17.32998   17.32319
       O    -5.94853   17.01156   18.08449
      H1    -5.44245   17.81166   18.32690
       H    -9.29566   18.17179   11.38366
       O    -9.49160   17.46109   12.03812
      H1   -10.39451   17.49093   12.20280
       H    -9.00921   18.00019   13.55582
       O    -8.93376   18.31884   14.46099
      H1    -8.04989   18.14780   14.76131
       H   -12.19550   18.13246   13.55582
       O   -11.87104   18.70817   12.79523
      H1   -11.87768   19.62973   13.04233
       H    -8.40143   14.92834   17.46188
       O    -8.29654   14.60351   18.35785
      H1    -9.09547   15.01945   18.74271

