48
frame 2 | Written by MDAnalysis XYZWriter (release 2.4.3)
       H    -7.64265   15.80757    4.59675
       O    -8.58621   15.88058    4.30988
      H1    -8.55860   15.04000    3.79986
       H   -10.14719   16.99196    9.94585
       O    -9.40814   16.78056    9.35837
      H1    -8.70264   16.43419    9.92469
       H   -13.25111   16.43398    8.14037
       O   -12.94370   17.24128    8.50812
      H1   -12.32891   16.98762    9.18990
       H   -14.54322   19.45489    3.52295
       O   -15.12013   19.32284    2.74973
      H1   -15.55127   18.43460    2.78178
       H    -8.26325   19.24472    5.89702
       O    -7.58277   19.55785    6.50472
      H1    -6.77655   19.23405    6.13426
       H   -11.94878   19.17367    2.92393
       O   -11.14053   18.85530    2.58320
      H1   -10.59348   18.79520    3.37930
       H   -13.99259   14.45513    7.04758
       O   -14.33116   15.35816    7.13440
      H1   -15.14215   15.15452    7.63142
       H    -9.07682   17.50791    4.45505
       O    -9.36834   18.46174    4.58553
      H1   -10.05420   18.38032    5.26459
       H   -11.74362   16.10302   11.22741
       O   -11.63674   17.01085   10.96324
      H1   -11.90146   17.59487   11.68259
       H    -9.40438   16.22383    7.47021
       O    -9.77291   15.62541    6.81796
      H1    -9.31703   15.76836    5.94301
       H    -5.88974   19.43215   11.27359
       O    -6.47062   19.06829   10.62888
      H1    -6.08504   18.89019    9.78061
       H   -11.70549   17.70967    7.01002
       O   -11.32895   18.43965    6.49768
      H1   -10.97109   19.03712    7.18584
       H   -14.10240   16.50706   10.91048
       O   -15.04531   16.59123   10.67988
      H1   -15.25922   17.56311   10.60962
       H   -15.98993   18.76348    8.87980
       O   -15.31182   18.95554    9.55463
      H1   -14.62227   18.31091    9.29152
       H    -9.73071   18.60310    9.01403
       O    -9.93783   19.50240    9.00593
      H1    -9.28968   20.07257    9.48755
       H   -12.02874   13.65978    7.65029
       O   -11.05930   13.47557    7.73445
      H1   -10.55794   14.29049    7.52375

