48
frame 2 | Written by MDAnalysis XYZWriter (release 2.4.3)
       H   -19.25924   -1.08876   -4.91814
       O   -19.03767   -0.22795   -5.27671
      H1   -18.46450    0.13546   -4.60888
       H   -16.95272   -5.96342   -2.45806
       O   -17.79934   -6.28747   -2.08374
      H1   -18.46354   -6.04307   -2.66072
       H   -18.94766   -3.22657   -0.33890
       O   -18.30177   -3.39153    0.41832
      H1   -18.26523   -2.51725    0.79260
       H   -14.85889   -5.79100   -3.22134
       O   -15.60936   -5.66100   -3.81710
      H1   -15.62156   -6.43709   -4.37800
       H   -12.86895   -3.34572   -1.24861
       O   -12.07636   -2.77596   -1.49499
      H1   -11.74280   -2.49292   -0.62406
       H   -15.94093   -4.06496   -4.13423
       O   -16.29809   -3.16159   -3.91268
      H1   -15.54356   -2.55728   -4.20959
       H   -16.18909   -1.38973   -0.00147
       O   -16.42632   -0.90328    0.81959
      H1   -15.73952   -1.21309    1.46723
       H   -18.92699   -6.70264    0.11265
       O   -19.31269   -6.01473    0.71085
      H1   -18.83727   -5.23342    0.38099
       H   -18.55970   -2.99599   -6.05223
       O   -18.76694   -2.95914   -5.08270
      H1   -17.92015   -2.96881   -4.61424
       H   -14.91123   -4.38295    3.16957
       O   -15.26040   -3.91639    2.39167
      H1   -14.78481   -4.07789    1.56840
       H   -13.69458   -1.39487   -3.85886
       O   -14.25060   -1.28126   -4.63450
      H1   -14.18958   -0.35188   -4.92808
       H   -16.36743   -2.67859   -2.07351
       O   -16.27596   -2.82146   -1.11277
      H1   -17.10410   -3.10145   -0.69832
       H   -12.76980   -6.39706   -1.30402
       O   -13.39848   -6.02430   -1.88575
      H1   -12.90996   -5.30092   -2.37790
       H   -12.74465    0.58653   -2.01434
       O   -13.17534   -0.25249   -2.15993
      H1   -12.58155   -0.90809   -1.83329
       H   -14.63059    1.30521   -3.47270
       O   -15.21661    1.57639   -2.75302
      H1   -14.75002    1.32267   -1.97154
       H   -13.87769   -4.89633   -0.63612
       O   -13.96821   -3.97254   -0.26723
      H1   -14.77616   -3.52806   -0.56401

