48
frame 2 | Written by MDAnalysis XYZWriter (release 2.4.3)
       H   -16.33669    7.76162    9.98920
       O   -16.67964    7.11527   10.64686
      H1   -17.61113    7.04605   10.41817
       H   -16.74619    5.40156    7.63299
       O   -16.02034    4.70649    7.63241
      H1   -15.49197    4.96343    8.40494
       H   -10.38729    7.77130    8.26222
       O    -9.70234    7.74949    8.93327
      H1    -9.98975    7.05509    9.50084
       H   -12.62089    8.06581   11.80645
       O   -12.60396    8.34253   10.87023
      H1   -13.49846    8.53804   10.61985
       H   -15.45394    5.52649   10.29642
       O   -14.82398    4.91814    9.95308
      H1   -14.90317    4.26157   10.63089
       H   -14.02464    5.13329   14.27831
       O   -13.90812    5.37650   13.32837
      H1   -12.95221    5.36135   13.15029
       H   -14.19732    8.90561    8.89292
       O   -15.05477    8.96577    9.31895
      H1   -15.25421    9.93829    9.40124
       H   -11.75995    3.90108    6.53819
       O   -11.14932    4.58298    6.79525
      H1   -11.21190    4.59523    7.79070
       H   -11.44264    7.22713    6.82831
       O   -10.93473    7.95436    6.40138
      H1   -11.61322    8.46200    5.88685
       H   -12.40983    7.54626    4.09174
       O   -12.07530    6.63744    4.18580
      H1   -12.63734    6.25120    4.96000
       H   -15.80973    7.61079   11.92269
       O   -15.46840    8.03719   12.73643
      H1   -14.90238    7.34210   13.14686
       H   -10.89802    2.96269    9.37171
       O   -11.57439    3.64464    9.47307
      H1   -12.35050    3.05274    9.23812
       H   -14.28402    2.35815    6.06038
       O   -13.54884    2.83055    5.63737
      H1   -13.79589    3.78685    5.43446
       H   -14.95124    5.30543    6.15749
       O   -14.11047    5.52188    5.66116
      H1   -14.46824    5.89792    4.83335
       H    -9.79240    9.44863   10.42521
       O   -10.37146   10.02469   10.96303
      H1   -11.25585    9.53108   11.07367
       H   -13.20508    6.36164    7.41342
       O   -12.74006    6.71648    8.15577
      H1   -12.91343    6.09432    8.90422

