48
frame 2 | Written by MDAnalysis XYZWriter (release 2.4.3)
       H   -15.22506   12.14813    1.67056
       O   -15.98535   12.50688    2.22353
      H1   -16.11318   13.39791    1.91837
       H   -17.40358   11.78895   -0.96196
       O   -16.60126   11.51649   -1.34005
      H1   -16.58953   12.03389   -2.11638
       H   -17.18896   17.23071    4.53702
       O   -17.92700   17.40413    5.16388
      H1   -17.52816   17.76033    5.96372
       H   -13.44582   16.90263   -0.41374
       O   -14.18623   16.28803   -0.25140
      H1   -14.75782   16.42908   -1.02780
       H   -18.95502   16.65526   -4.51072
       O   -18.70843   17.31842   -5.21158
      H1   -19.36761   17.96901   -4.96984
       H   -14.54322   19.45489    3.52295
       O   -15.12013   19.32284    2.74973
      H1   -15.55127   18.43460    2.78178
       H   -15.39708   18.97111   -1.33951
       O   -15.64309   18.26124   -1.91117
      H1   -15.91252   18.68990   -2.76345
       H   -17.80217   13.17246    3.15929
       O   -18.72581   13.36474    3.37732
      H1   -19.05769   14.03482    2.81398
       H   -15.53372   15.25015    0.59475
       O   -16.35834   15.09616    1.07204
      H1   -17.01235   15.16831    0.40596
       H   -18.62149   17.81465    0.10849
       O   -18.34917   17.72545   -0.84941
      H1   -17.38547   17.69048   -0.79947
       H   -17.47135   17.75928    2.30513
       O   -16.71689   17.29844    2.72417
      H1   -16.64479   16.44883    2.20963
       H   -17.58198   11.04956    2.39320
       O   -18.39749   10.56820    2.53386
      H1   -18.07763    9.65569    2.68920
       H   -16.18266   15.16433   -4.00596
       O   -16.34958   14.93415   -3.13232
      H1   -17.01749   14.15833   -3.19422
       H   -18.34429   12.38324   -3.99048
       O   -18.06920   12.95569   -3.24522
      H1   -18.75528   12.83996   -2.57252
       H   -18.24344   19.38698   -3.33764
       O   -18.76772   19.74545   -2.63155
      H1   -18.71025   19.08091   -1.93118
       H   -18.76293   15.99492   -0.90466
       O   -19.15064   15.14967   -0.64288
      H1   -19.62091   15.39337    0.13611

