48
frame 0 | Written by MDAnalysis XYZWriter (release 2.4.3)
       H    -1.65765   -0.78452   12.64407
       O    -2.39047   -0.77058   11.99468
      H1    -2.94201   -0.01047   12.15683
       H    -1.21617    4.74224   15.00610
       O    -2.00581    4.58171   15.48630
      H1    -1.75986    4.04708   16.28167
       H    -0.41895   -1.13328   17.86286
       O     0.46306   -1.02273   18.21892
      H1     1.07288   -1.48657   17.60977
       H     0.26249   -0.73342   13.96960
       O     0.40834    0.21791   13.85257
      H1     0.34435    0.43426   14.81782
       H    -1.00676    2.32212   17.16499
       O    -1.00234    3.08200   17.84775
      H1    -1.68717    2.79278   18.51509
       H    -0.84714   -2.95568   13.07179
       O    -0.94879   -2.18532   13.70847
      H1    -1.77066   -2.38137   14.14303
       H     3.29543    0.08551   15.20372
       O     2.75476   -0.04646   16.00127
      H1     3.22149    0.22276   16.78020
       H     1.30436    0.88404   16.23801
       O     0.34233    1.13291   16.31898
      H1     0.10089    0.46265   16.97911
       H    -0.78920   -1.09524   10.76987
       O     0.07039   -0.92441   10.28215
      H1     0.28017   -1.69937    9.73875
       H     0.93390    3.12370   18.32889
       O     1.78525    3.39721   18.62187
      H1     2.34479    2.69631   18.27028
       H    -2.98160   -3.68997   16.19904
       O    -2.26814   -3.06732   16.02950
      H1    -2.30932   -2.33727   16.71900
       H     1.54370    0.80871   12.41626
       O     2.23747    1.31020   11.96823
      H1     2.26750    0.88172   11.14571
       H    -2.71193   -0.91930   18.43801
       O    -2.44409   -0.91048   17.46230
      H1    -3.28436   -0.74449   16.99612
       H     4.58052    1.46161   14.11782
       O     4.22554    0.63292   13.66334
      H1     3.46639    0.83807   13.07218
       H     0.07054    3.85753   12.33453
       O     0.59970    3.68997   13.11325
      H1     1.19798    3.00620   12.81893
       H     0.56446   -2.49939   14.62183
       O     1.25799   -2.87099   15.18966
      H1     1.99360   -2.25568   15.09998

