48
frame 2 | Written by MDAnalysis XYZWriter (release 2.4.3)
       H   -11.87858   11.08190  -14.29819
       O   -12.83951   10.78656  -14.44921
      H1   -13.27928   11.44879  -13.90583
       H   -17.95581    5.68333  -20.13040
       O   -17.29226    5.79599  -19.42559
      H1   -17.01326    6.68766  -19.53890
       H   -11.83079    7.90742  -18.51433
       O   -11.08123    7.75508  -19.12104
      H1   -10.31115    7.83122  -18.53321
       H   -13.33329    7.28580  -16.68369
       O   -13.44584    7.96503  -17.35178
      H1   -13.26491    8.78209  -16.90476
       H   -14.70662   10.88511  -19.05704
       O   -15.61559   10.62961  -19.30795
      H1   -15.64358    9.67081  -19.20843
       H   -17.03858   10.49085  -18.00072
       O   -17.87163   10.52451  -17.44057
      H1   -17.81303    9.79161  -16.80409
       H   -10.64148   11.17659  -16.58253
       O   -11.24199   10.52837  -17.03837
      H1   -10.88188    9.60738  -17.02911
       H   -12.90771   13.54210  -19.10764
       O   -12.53965   14.16082  -18.42385
      H1   -13.09708   14.95654  -18.56347
       H   -12.25971   11.14441  -18.35942
       O   -12.80366   11.34867  -19.12811
      H1   -12.22615   11.28274  -19.93805
       H   -15.91034   11.08271  -15.23020
       O   -16.41723   10.83996  -14.42732
      H1   -17.13140   10.22909  -14.66909
       H   -18.30732   13.22185  -16.19569
       O   -18.41223   13.02938  -17.15756
      H1   -18.20836   12.09868  -17.23308
       H   -13.90016   14.02587  -17.34834
       O   -14.66473   14.08063  -16.81107
      H1   -15.43007   14.39497  -17.36965
       H   -14.21713   12.03376  -16.64558
       O   -14.63441   11.20070  -16.39231
      H1   -13.90881   10.86152  -15.88187
       H   -14.89409    7.38756  -19.63837
       O   -15.49730    7.83838  -19.01731
      H1   -15.02941    7.76808  -18.17972
       H    -9.80007   13.63218  -19.52406
       O    -9.35427   12.81545  -19.39982
      H1    -9.82437   12.19550  -18.89075
       H   -16.21033   14.95017  -19.50767
       O   -16.62510   14.94150  -18.58909
      H1   -17.19482   14.13501  -18.63979

