48
frame 0 | Written by MDAnalysis XYZWriter (release 2.4.3)
       H   -17.93243   12.12527  -11.61791
       O   -18.47428   11.36282  -11.49713
      H1   -18.52994   11.19669  -10.55221
       H   -11.33229   12.04974  -11.88614
       O   -12.08735   12.41190  -11.46931
      H1   -12.64609   12.40699  -12.25411
       H   -14.12838   13.55914  -13.68580
       O   -13.91113   12.58857  -13.57874
      H1   -14.78869   12.18277  -13.55242
       H   -14.73154   16.03449  -12.89529
       O   -15.09599   16.45970  -12.06019
      H1   -15.59725   15.86252  -11.51360
       H   -17.10173   15.77834  -13.45598
       O   -17.57331   16.03757  -14.26571
      H1   -17.02510   16.62649  -14.81081
       H   -16.82818   14.01454  -16.64977
       O   -17.46185   13.81745  -15.89124
      H1   -17.49644   14.58578  -15.30309
       H   -13.12332   15.30310  -14.43604
       O   -14.13270   15.30794  -14.34050
      H1   -14.40487   15.16135  -15.24462
       H   -17.56311   14.47334  -10.61170
       O   -16.70931   14.08393  -10.76021
      H1   -16.50249   13.59561   -9.86037
       H   -12.37270   16.19104  -10.63304
       O   -12.99465   16.77463  -10.17106
      H1   -13.85450   16.48950  -10.55004
       H   -14.86069   15.36890   -6.85834
       O   -15.24686   14.48574   -6.84375
      H1   -14.63511   13.92927   -6.39258
       H   -15.94576   11.19389  -15.01645
       O   -16.50273   11.66414  -14.36365
      H1   -16.92271   12.40127  -14.93048
       H   -19.93602   15.41729  -10.85267
       O   -19.09767   15.40366  -10.34594
      H1   -19.23578   16.10777   -9.69931
       H   -18.87722   14.04970   -6.94292
       O   -18.44135   13.57906   -6.24749
      H1   -17.63835   13.24668   -6.70634
       H   -15.06608   17.81966   -7.04283
       O   -14.37867   17.08193   -7.16775
      H1   -14.14417   17.15601   -8.10678
       H   -15.55364   10.21566  -10.95482
       O   -15.32309   11.15778  -10.97536
      H1   -16.03897   11.64377  -11.36955
       H   -16.04850   13.46811   -7.86251
       O   -16.44963   12.77486   -8.43098
      H1   -15.70759   12.07808   -8.50625

