48
frame 2 | Written by MDAnalysis XYZWriter (release 2.4.3)
       H     2.13324   19.18852   -7.80192
       O     2.35840   18.70326   -8.56199
      H1     2.98066   18.03732   -8.26917
       H     1.02245   13.45609   -7.13828
       O     1.84795   13.04758   -6.94913
      H1     2.48035   13.77314   -6.67255
       H     7.30478   16.13208  -13.21039
       O     6.42267   16.53312  -13.29686
      H1     6.44933   17.04436  -12.45819
       H     2.16368   14.34023  -10.72571
       O     2.51421   14.76928   -9.93805
      H1     1.77068   15.02089   -9.40555
       H     7.08584   13.66042   -6.37832
       O     7.69384   13.31681   -5.65111
      H1     7.54926   12.35808   -5.58664
       H    10.44577   15.80308   -7.80653
       O     9.66459   15.66255   -8.39766
      H1     9.88918   16.24640   -9.15030
       H     5.89218   15.98301   -8.72056
       O     6.66936   15.97397   -9.28574
      H1     7.29787   15.36378   -8.94135
       H     4.54048   17.76632   -7.10955
       O     4.39705   17.16694   -7.86561
      H1     4.19260   16.35493   -7.46666
       H     5.82187   17.46413  -10.59200
       O     6.02717   18.26870  -11.14785
      H1     5.15230   18.42813  -11.63600
       H     8.26169   18.63000   -7.93654
       O     8.75793   18.19554   -7.18606
      H1     8.95818   17.28435   -7.46808
       H     7.94747   12.95483  -10.20499
       O     7.03604   12.84440   -9.92175
      H1     6.61566   13.47793  -10.50597
       H     5.15475   19.86277   -6.10229
       O     4.51738   19.22050   -5.81907
      H1     3.76741   19.78979   -5.58891
       H     5.74833   15.13825  -12.31813
       O     5.39118   14.48046  -11.71276
      H1     4.69763   14.87210  -11.19432
       H     6.08304   18.05258   -5.25383
       O     6.92283   17.82091   -4.94685
      H1     7.55417   18.03188   -5.63598
       H     4.10825   15.01485   -5.46067
       O     3.83527   14.86350   -6.36316
      H1     4.51567   14.25301   -6.70259
       H     6.22190   13.35672   -8.40349
       O     5.81223   13.23532   -7.51342
      H1     5.54902   12.32511   -7.55391

