48
frame 2 | Written by MDAnalysis XYZWriter (release 2.4.3)
       H    -5.36968   12.33723   15.86107
       O    -4.51773   12.39984   16.30346
      H1    -4.68562   13.23832   16.79800
       H     2.29442   14.41004   18.76828
       O     1.41284   14.50408   18.31146
      H1     1.41151   15.32181   17.77892
       H     0.09173   13.48246   17.94507
       O    -0.52614   12.75801   17.72215
      H1    -1.10760   12.56698   18.51180
       H    -0.72626   16.99541   17.20241
       O     0.06546   16.95946   17.81076
      H1     0.44515   17.85190   17.68557
       H    -0.75674   13.60771   16.13669
       O    -0.55951   14.15030   15.36471
      H1    -0.90810   14.97916   15.60848
       H    -6.12737   14.50118   17.18935
       O    -5.27648   14.59503   17.59590
      H1    -5.03721   15.50867   17.28440
       H    -1.33263   17.05438   19.10007
       O    -2.32051   17.16418   19.24177
      H1    -2.48532   16.49406   19.91567
       H    -0.68397    7.35128   18.38661
       O    -0.19092    7.53074   17.59290
      H1    -0.23367    8.46374   17.37075
       H     0.01265   13.29216   13.68752
       O     0.61692   13.04582   12.96210
      H1    -0.07182   12.98145   12.24221
       H    -1.87761   10.34238   15.19275
       O    -1.43210    9.52741   15.46935
      H1    -0.56351    9.86145   15.75900
       H    -2.04271   13.02337   14.69561
       O    -2.43941   12.16698   14.79820
      H1    -3.08697   12.30445   15.51564
       H     1.68516   10.21643   16.77487
       O     0.83307   10.35285   17.13702
      H1     0.83760   11.19985   17.57093
       H    -2.88479   16.51247   16.32120
       O    -2.00087   16.64585   16.01452
      H1    -2.04552   17.59298   15.79220
       H     2.45719   14.43890   14.49449
       O     3.18329   13.96555   14.92035
      H1     2.82687   13.36290   15.56827
       H    -6.15014    9.85542   18.74367
       O    -5.25730   10.00072   18.41112
      H1    -5.14806   10.93617   18.09680
       H    -4.20855    9.14254   17.05150
       O    -3.69015    8.47176   16.52738
      H1    -2.88826    8.92466   16.26541

