48
frame 2 | Written by MDAnalysis XYZWriter (release 2.4.3)
       H     2.95676   -5.00404  -19.50355
       O     3.12905   -5.79456  -18.98058
      H1     3.50147   -6.41684  -19.62428
       H     1.31091   -1.99410  -15.80240
       O     1.75331   -2.20656  -16.66068
      H1     2.32855   -1.41883  -16.74812
       H     4.14133   -3.01421  -13.84904
       O     4.93060   -3.07565  -14.37704
      H1     5.24232   -2.26333  -14.75647
       H     2.79315   -2.26794  -12.10234
       O     2.68986   -2.81285  -12.89638
      H1     2.16907   -3.59935  -12.62597
       H    -0.41182   -0.32128  -13.54953
       O    -1.03250    0.40003  -13.14634
      H1    -1.77131   -0.09997  -12.78377
       H     5.86079   -0.46235  -16.63009
       O     6.25380   -1.13314  -16.04571
      H1     6.90272   -1.64462  -16.53329
       H     5.10539    1.33946  -14.46055
       O     4.26004    0.99949  -14.72204
      H1     3.50874    1.49252  -14.46750
       H     1.12527   -2.36044  -13.77510
       O     0.44609   -1.84898  -14.25928
      H1    -0.34211   -2.47630  -14.21135
       H    -1.31910    0.35979  -16.10713
       O    -1.53443    1.23396  -15.63770
      H1    -1.44405    0.89445  -14.72933
       H     0.11016   -1.16200  -17.33058
       O    -0.76536   -0.75114  -17.27222
      H1    -1.58375   -1.39784  -17.21213
       H     2.37438   -6.27891  -13.96313
       O     2.47711   -6.71057  -14.79395
      H1     2.94366   -6.05439  -15.33920
       H     4.55073    1.18409  -16.48849
       O     4.75900    1.19217  -17.45007
      H1     5.19952    2.02862  -17.57757
       H     0.34153   -7.02204  -19.01932
       O     0.42813   -6.08252  -18.81965
      H1     1.39571   -6.12882  -18.66563
       H    -0.17564   -3.62355  -17.12909
       O    -0.72219   -4.40583  -17.02564
      H1    -0.36068   -4.98602  -17.70746
       H     3.34824   -3.48412  -16.69014
       O     4.22076   -3.77180  -17.03250
      H1     4.82193   -3.79330  -16.28737
       H    -0.49474   -6.43978  -14.18362
       O    -0.66312   -5.52136  -14.34056
      H1    -0.42924   -5.39419  -15.28695

