48
frame 2 | Written by MDAnalysis XYZWriter (release 2.4.3)
       H   -16.74619    5.40156    7.63299
       O   -16.02034    4.70649    7.63241
      H1   -15.49197    4.96343    8.40494
       H   -18.54499   12.61954    5.14461
       O   -18.52933   12.24167    6.02631
      H1   -18.87041   12.94763    6.59427
       H   -20.02195    4.34461    1.50677
       O   -19.09295    4.38015    1.18024
      H1   -18.87165    3.67002    0.56240
       H   -16.40421    9.23503    8.02482
       O   -16.85534    9.27948    7.12063
      H1   -16.76873   10.23892    6.94197
       H   -19.13663    1.55499    4.57662
       O   -19.34256    1.24930    3.69886
      H1   -18.64169    1.55698    3.06935
       H   -17.14771    2.43372    3.77561
       O   -16.83027    2.30336    4.72678
      H1   -17.32558    2.95993    5.25252
       H   -19.62321    7.20309    5.33564
       O   -19.10874    6.41340    4.95250
      H1   -18.68381    6.95101    4.19659
       H   -18.31833    7.61387    2.10409
       O   -17.85099    7.77180    2.93558
      H1   -16.95855    7.39212    2.84793
       H   -18.44452    5.45509   -0.79590
       O   -17.49984    5.47180   -1.09973
      H1   -17.48719    5.74107   -1.99946
       H   -17.58198   11.04956    2.39320
       O   -18.39749   10.56820    2.53386
      H1   -18.07763    9.65569    2.68920
       H   -18.07418    3.18915    1.83727
       O   -17.45780    2.50875    2.16580
      H1   -16.93161    2.13801    1.47482
       H   -17.47260    7.44712    6.88782
       O   -17.81820    6.66879    7.27959
      H1   -18.35511    6.30255    6.55585
       H   -14.60994    7.10251    2.61784
       O   -15.30011    6.54881    3.02306
      H1   -15.37793    5.77753    2.45795
       H   -14.95124    5.30543    6.15749
       O   -14.11047    5.52188    5.66116
      H1   -14.46824    5.89792    4.83335
       H   -18.21866    8.22053   -0.35830
       O   -17.79051    8.88750   -0.89788
      H1   -18.00474    9.69243   -0.52449
       H   -15.17527    3.84240    0.84330
       O   -15.21463    4.81504    0.90835
      H1   -15.77214    5.07789    0.16584

