48
frame 3 | Written by MDAnalysis XYZWriter (release 2.4.3)
       H   -15.96616   -7.33379    0.85463
       O   -15.16286   -7.46070    0.37993
      H1   -15.42069   -8.18209   -0.27074
       H   -15.90999   -8.87467    3.02315
       O   -15.37930   -9.49157    2.43688
      H1   -15.16350   -8.98205    1.67203
       H   -14.21139   -7.88046    8.05589
       O   -15.17478   -8.06476    8.22864
      H1   -15.53526   -7.20587    8.60011
       H   -18.61232  -10.92589    3.55721
       O   -19.50377  -10.69971    3.16817
      H1   -19.46549   -9.91096    2.64446
       H   -18.61349  -15.13425    5.18599
       O   -19.17053  -14.47761    5.56930
      H1   -20.03299  -14.86785    5.70881
       H   -16.20323   -9.09581    5.42259
       O   -16.16945   -9.56344    6.25705
      H1   -16.12557   -8.77343    6.91508
       H   -17.72791  -13.17694    3.90656
       O   -16.97480  -12.71180    3.52325
      H1   -16.28986  -12.85157    4.26619
       H   -18.34391   -7.84607   -0.49905
       O   -18.94586   -7.17077   -0.13341
      H1   -18.60474   -6.26858   -0.41707
       H   -18.81392  -12.68243    6.54889
       O   -18.95002  -11.83133    6.95459
      H1   -18.30356  -11.73463    7.71546
       H   -17.80847   -8.49852    4.66310
       O   -17.15478   -7.95715    4.08706
      H1   -17.66176   -7.42743    3.46077
       H   -18.77048  -10.11010    6.14537
       O   -19.12485   -9.29530    5.75237
      H1   -19.47694   -9.55217    4.89808
       H   -17.08645  -13.41505    9.17302
       O   -17.49347  -12.54335    9.29222
      H1   -16.89916  -12.08866    9.94709
       H   -17.61080   -5.38501    1.58513
       O   -17.28214   -6.08062    2.23134
      H1   -16.46672   -5.73030    2.63112
       H   -14.77748  -10.61150    6.58357
       O   -14.17718  -11.36296    6.75527
      H1   -13.27432  -11.08176    6.83662
       H   -15.67209   -5.98027    6.65613
       O   -16.43212   -6.35399    6.23913
      H1   -16.21979   -6.87995    5.48142
       H   -18.76064   -5.59018    6.88536
       O   -19.67120   -5.51039    6.72399
      H1   -19.78205   -5.78700    5.80198

