48
frame 4 | Written by MDAnalysis XYZWriter (release 2.4.3)
       H    16.46722    9.18091   -6.84237
       O    15.95997    9.92076   -7.18871
      H1    15.12817   10.06313   -6.76317
       H    12.31234    5.62583   -6.57185
       O    11.96141    5.06650   -5.86149
      H1    12.35931    5.51660   -5.08709
       H    14.17513   11.72641   -4.21440
       O    14.53905   12.31736   -3.57067
      H1    13.94834   13.07916   -3.50578
       H    16.37122   10.45767   -3.19374
       O    17.13833   10.14739   -2.66128
      H1    16.66035    9.90430   -1.88640
       H    14.76832    2.79222   -6.24342
       O    14.71076    2.98137   -5.28003
      H1    14.69565    3.98787   -5.30239
       H    12.01610    6.45221   -1.72222
       O    12.07271    6.68032   -0.77340
      H1    11.28863    7.01899   -0.34342
       H    15.95200    6.58765   -5.91660
       O    15.33568    5.95115   -5.48509
      H1    15.92489    5.73609   -4.73751
       H    11.78688   10.76150   -2.24263
       O    12.03054    9.86855   -2.58633
      H1    11.44534    9.53578   -3.24663
       H    13.49123    5.40081   -2.89224
       O    12.91568    6.12589   -3.25130
      H1    13.44038    6.78492   -3.75164
       H    17.78778    7.66377   -7.00545
       O    17.46554    7.76427   -6.09624
      H1    18.18151    8.11571   -5.52745
       H    12.68334   10.31414   -6.46393
       O    13.47745   10.41735   -5.96014
      H1    13.50883    9.56631   -5.42427
       H    14.95176    6.85426    0.19834
       O    14.30427    7.59400    0.28308
      H1    13.46231    7.29709   -0.08038
       H    13.62090    9.53013   -1.98293
       O    14.58381    9.45217   -1.85826
      H1    14.73402    8.74792   -1.25245
       H    14.82155    7.42646   -4.43715
       O    14.12821    8.14062   -4.36125
      H1    14.36759    8.61169   -3.59779
       H    13.57987    7.85873   -8.67590
       O    13.71819    6.85701   -8.65593
      H1    14.67999    6.73494   -8.67671
       H    10.33144    7.60437   -3.60393
       O    10.28462    8.51581   -3.91311
      H1     9.47545    8.78721   -3.56452

