48
frame 4 | Written by MDAnalysis XYZWriter (release 2.4.3)
       H   -11.01866    9.62930  -12.73203
       O   -10.76480    8.80367  -13.21251
      H1   -11.49347    8.17544  -13.33508
       H    -6.70195    6.58784   -8.41444
       O    -7.03016    6.88203   -7.55761
      H1    -8.00519    6.93778   -7.66550
       H    -9.44038    5.25232   -7.83487
       O    -9.62846    5.58163   -8.72625
      H1    -9.49516    4.83421   -9.33395
       H    -9.60977    4.21933   -5.59765
       O    -9.28992    5.06452   -5.94769
      H1    -9.66617    5.75188   -5.33778
       H    -7.87330    9.84665   -8.22106
       O    -8.44894    9.49633   -8.91499
      H1    -9.13340    9.11796   -8.36181
       H   -13.71436    9.65432   -9.74331
       O   -12.85305    9.36751  -10.00119
      H1   -12.33899   10.20992  -10.03499
       H   -12.63654    9.31830   -5.88212
       O   -13.02485    8.73222   -6.57626
      H1   -13.81206    9.12499   -6.94012
       H   -10.88919    5.90116  -11.73987
       O   -10.16028    6.21236  -12.28311
      H1    -9.59055    6.62071  -11.63808
       H   -11.60698    4.46251  -10.42710
       O   -11.99419    3.80788  -10.99220
      H1   -12.77543    4.19493  -11.36147
       H   -14.59132    6.94528   -8.15450
       O   -15.43303    7.34353   -8.35145
      H1   -15.79962    6.66203   -8.92318
       H   -12.92432    5.74578   -6.51244
       O   -13.24099    5.40922   -7.36956
      H1   -12.57768    5.62725   -8.05103
       H    -9.45484    2.73036  -11.10749
       O    -9.25018    2.86656  -10.14078
      H1    -9.83365    2.16358   -9.71402
       H   -12.07113    7.47417  -10.22299
       O   -11.77306    6.58791  -10.02225
      H1   -11.00063    6.68970   -9.48113
       H   -11.37048    8.16481   -7.41004
       O   -10.40270    8.26944   -7.23133
      H1   -10.35865    8.10715   -6.29938
       H    -7.34577    6.73435  -10.79580
       O    -7.76866    7.51600  -11.07565
      H1    -8.05107    7.89560  -10.16547
       H   -13.55317    9.41102  -11.89895
       O   -13.67525    8.79316  -12.68188
      H1   -14.29103    9.32176  -13.23401

