48
frame 3 | Written by MDAnalysis XYZWriter (release 2.4.3)
       H     9.27240   18.10851   11.58754
       O     9.30053   17.20090   11.21476
      H1     8.43525   16.81791   11.52194
       H     6.01782   13.12102   15.18702
       O     6.96953   13.29900   15.33168
      H1     7.27221   12.55534   15.88726
       H     3.77024   13.10128   14.56980
       O     4.56248   12.75506   14.20947
      H1     4.58376   12.97605   13.28752
       H     5.16465   17.45783   11.47941
       O     4.80844   16.61325   11.75574
      H1     4.87883   16.04237   10.97796
       H     6.44645   15.69944   12.32454
       O     7.33748   15.91872   12.53364
      H1     7.76323   15.06005   12.56030
       H    10.49032   16.67166    9.91702
       O    10.93666   16.19079    9.10885
      H1    11.88090   16.46011    9.31785
       H    10.81382   14.94092   14.70058
       O    11.14796   14.07472   15.00734
      H1    11.84239   13.92175   14.33554
       H     9.70520   13.29012   13.61740
       O     8.79133   13.23408   13.17410
      H1     8.03366   13.03988   13.72289
       H     5.51738   13.54911   10.92811
       O     5.12158   12.93481   11.58483
      H1     4.19511   12.86345   11.30577
       H     6.56924   12.02544   11.02540
       O     7.11608   11.46903   10.40411
      H1     8.02079   11.63988   10.48118
       H     9.43347   12.47453   11.76559
       O     9.89075   12.02346   10.96273
      H1    10.15662   11.19770   11.33119
       H     7.21458   17.00360   13.99354
       O     7.20425   17.65864   14.72792
      H1     6.37977   17.49385   15.25399
       H     6.57412   14.66537    9.26031
       O     5.75852   14.87538    9.75726
      H1     5.13629   15.00535    9.02996
       H    10.10788   17.80760   14.98413
       O     9.67013   18.30721   15.66311
      H1     8.78477   18.08523   15.46951
       H     5.96669   19.42208   11.68344
       O     5.91829   19.16296   10.75509
      H1     5.07887   19.52781   10.45684
       H    10.11751   16.48311   12.99981
       O    10.70109   16.57510   13.74097
      H1    11.48761   17.10242   13.42413

