48
frame 3 | Written by MDAnalysis XYZWriter (release 2.4.3)
       H     3.90370   -3.12409   13.73164
       O     4.45895   -3.94156   13.64213
      H1     3.91849   -4.66447   13.93792
       H     1.03317   -8.41235   13.16794
       O     1.73198   -8.50613   13.82807
      H1     2.53803   -8.10103   13.48006
       H     6.26326   -4.52320   16.05761
       O     6.70434   -4.36968   15.22649
      H1     5.95724   -4.04694   14.66728
       H     4.76506   -9.74818   14.69044
       O     5.02829   -9.48980   13.80193
      H1     4.67748  -10.14945   13.15240
       H     3.31677   -9.99813   16.30592
       O     4.15732  -10.44150   16.10000
      H1     4.47887  -10.75535   16.97900
       H     5.82290   -8.92570   19.73096
       O     5.78614   -9.23852   18.81150
      H1     6.09176  -10.15163   18.78199
       H     4.57065   -6.54577   12.90218
       O     3.94668   -7.13885   13.35276
      H1     4.51798   -7.92105   13.33505
       H     4.56727   -7.89771   18.15395
       O     3.86202   -7.27685   18.01521
      H1     4.26967   -6.45949   17.60782
       H    -0.34735   -7.42311   18.01297
       O    -0.49298   -8.16918   18.65842
      H1     0.38012   -8.53417   18.78184
       H    -1.30493   -5.50566   16.23153
       O    -0.52604   -5.94688   16.52497
      H1    -0.48899   -6.61181   15.83446
       H     1.45991   -3.03433   18.26080
       O     1.92561   -3.20806   19.06899
      H1     2.00180   -2.34053   19.48111
       H     3.80010   -4.36301   16.82589
       O     4.60999   -4.71766   17.19295
      H1     4.95237   -4.02467   17.79697
       H     5.32508   -6.97626   15.05161
       O     6.25200   -6.84155   14.76905
      H1     6.40432   -5.86349   14.86960
       H     7.02809   -7.56246   16.28132
       O     7.36866   -7.84992   17.17791
      H1     6.65218   -8.29219   17.66996
       H     1.40401   -5.27575   16.38334
       O     2.03528   -4.94217   15.71354
      H1     1.77999   -4.02211   15.70472
       H     1.84113   -8.81752   15.50319
       O     2.14234   -8.83959   16.47178
      H1     2.71852   -8.11121   16.53674

