48
frame 0 | Written by MDAnalysis XYZWriter (release 2.4.3)
       H   -15.65887    0.50158   -6.25144
       O   -15.08761   -0.20930   -6.62470
      H1   -14.55079    0.16609   -7.28327
       H    -9.55817   -1.87240  -10.05523
       O   -10.42376   -1.45499  -10.10274
      H1   -10.75198   -1.40253  -11.01585
       H   -17.04082   -2.16456  -11.01205
       O   -16.30113   -1.67590  -11.46378
      H1   -15.58068   -2.24331  -11.72559
       H   -17.39836   -0.21628  -12.29210
       O   -17.71636    0.69004  -12.25034
      H1   -18.38318    0.73958  -12.89507
       H   -14.81701   -0.64983  -13.95566
       O   -14.57357    0.19152  -13.49340
      H1   -13.87630    0.64351  -14.04892
       H   -14.52078    0.38572   -9.70044
       O   -14.17082   -0.47650  -10.01860
      H1   -14.92343   -0.89125  -10.49388
       H   -14.54214   -1.98039   -6.33146
       O   -14.35987   -2.93994   -6.43792
      H1   -13.80041   -2.94474   -7.22457
       H   -14.87520    1.76170  -12.27696
       O   -15.52001    2.29380  -11.76070
      H1   -16.25443    1.66979  -11.60446
       H   -12.71338    0.12591   -9.21384
       O   -12.11436    0.61639   -8.63764
      H1   -11.55390   -0.03252   -8.31045
       H   -12.78716   -0.47779  -12.30445
       O   -11.88007   -0.64020  -12.57320
      H1   -11.72177   -0.04385  -13.33360
       H   -13.96882    3.67422  -10.86628
       O   -13.12576    3.88260  -10.49008
      H1   -13.08896    4.84639  -10.31049
       H   -18.82267   -1.69665   -7.41782
       O   -17.88140   -1.89214   -7.51420
      H1   -17.36405   -1.08260   -7.50420
       H   -18.06854    0.97856   -7.00894
       O   -17.55453    1.00895   -7.82319
      H1   -18.10455    1.49663   -8.53474
       H   -15.78679    2.16440   -9.96857
       O   -15.50715    1.82930   -9.10613
      H1   -16.27771    1.59423   -8.53681
       H   -11.49590   -3.04164   -7.50004
       O   -11.98368   -2.86745   -8.33004
      H1   -11.37216   -2.48630   -8.92543
       H   -14.23998   -3.78331  -12.93459
       O   -14.13760   -3.18893  -12.18027
      H1   -13.54462   -3.68951  -11.59789

