48
frame 4 | Written by MDAnalysis XYZWriter (release 2.4.3)
       H   -10.27372    6.28132    5.20029
       O    -9.58102    6.23122    4.55048
      H1    -8.74620    6.49504    5.01216
       H    -6.45326    5.24289    1.22333
       O    -6.71598    5.11158    0.29876
      H1    -7.53664    4.59088    0.30291
       H    -3.66259    7.49977    1.22951
       O    -3.79895    6.58321    1.47140
      H1    -3.25761    6.40275    2.27542
       H    -8.01825    8.46888    0.60134
       O    -8.42475    7.61730    0.65469
      H1    -7.70168    6.94056    0.58320
       H    -4.25639    9.98538    1.37903
       O    -3.89012   10.53376    2.07243
      H1    -4.52038   11.16337    2.37407
       H    -5.63196    8.25335    4.00162
       O    -6.07645    8.56975    3.22984
      H1    -5.50621    9.33173    2.96736
       H    -1.72248    5.73818    3.93671
       O    -2.10279    6.60370    3.73003
      H1    -2.73187    6.86019    4.33263
       H    -7.27171    5.93124    5.87040
       O    -7.21551    6.83341    5.61001
      H1    -7.55058    7.28745    6.38296
       H    -5.49044   12.09256    3.87933
       O    -5.67303   12.52745    3.00497
      H1    -6.60273   12.33471    2.79175
       H    -1.36761    8.21898    2.93351
       O    -1.37055    8.70013    2.06989
      H1    -2.21768    9.19148    2.13701
       H    -9.03532    9.87004    3.08166
       O    -9.57052    9.08283    3.22556
      H1    -9.02927    8.27759    3.47462
       H    -4.84699    5.37317    4.65643
       O    -4.11593    4.97507    5.13529
      H1    -4.00490    4.10703    4.75131
       H    -7.15009    9.98000    6.53401
       O    -7.19046   10.88049    6.21419
      H1    -8.11054   11.07064    6.28679
       H    -5.25009    6.08225    2.32073
       O    -5.96183    5.72060    2.87194
      H1    -6.43083    6.46289    3.17845
       H    -4.26859    8.31932    6.41333
       O    -4.05549    8.49336    5.49202
      H1    -3.35605    9.19567    5.38810
       H    -4.57543   12.57744    5.91861
       O    -4.49611   11.79277    5.41919
      H1    -5.34444   11.34443    5.60510

