48
frame 4 | Written by MDAnalysis XYZWriter (release 2.4.3)
       H    -5.14764   12.60283   15.02320
       O    -5.22347   12.93749   15.92034
      H1    -5.60484   13.84225   16.00492
       H    -7.23431   11.00942   14.49633
       O    -7.67279   11.66876   15.07478
      H1    -7.02185   12.22309   15.53734
       H    -8.70511   15.38885   14.13181
       O    -8.14335   14.70673   13.69572
      H1    -8.78317   14.13030   13.30691
       H    -9.33185   14.20543   17.83877
       O   -10.10876   14.56454   17.43796
      H1   -10.51393   15.27758   18.02386
       H   -11.74328   10.72171   15.79198
       O   -12.47672   11.02585   16.27338
      H1   -13.11800   10.31904   16.12889
       H   -11.76374   13.51120   13.90524
       O   -12.12530   14.37410   13.66477
      H1   -12.63614   14.53567   14.48531
       H    -8.62669    9.79589   18.49056
       O    -8.40204   10.41112   19.15605
      H1    -8.25054    9.94914   20.03574
       H   -12.54898   12.49516   16.99440
       O   -12.69700   13.35277   17.46319
      H1   -11.80474   13.78324   17.38070
       H    -9.12186    8.78171   16.00529
       O    -8.77460    7.88901   15.94936
      H1    -9.37044    7.41389   15.29552
       H    -7.28281    7.57688   14.82886
       O    -6.52103    7.26208   14.31875
      H1    -5.91190    7.32737   15.10661
       H    -8.87420   10.88369   15.96219
       O    -9.60190   10.44418   16.45919
      H1    -9.60230   10.71728   17.36611
       H    -8.32861    7.40894   17.64383
       O    -7.72507    7.27845   18.36615
      H1    -7.14370    6.56069   18.12651
       H    -6.41524    9.16161   14.04087
       O    -6.35776   10.04863   13.62602
      H1    -5.43454   10.38864   13.73430
       H    -6.67861   10.71520   18.38713
       O    -5.81334   10.57238   17.91360
      H1    -5.65525   11.37848   17.47219
       H   -11.29538    8.61760   17.49325
       O   -11.33426    8.18757   18.34683
      H1   -11.39359    7.21835   18.20840
       H    -5.64029    8.98210   16.95190
       O    -5.16957    8.35108   16.44767
      H1    -4.35233    8.77783   16.13022

