48
frame 3 | Written by MDAnalysis XYZWriter (release 2.4.3)
       H    -7.03205    4.80812  -18.85191
       O    -6.17076    4.96009  -18.42105
      H1    -5.43516    4.57582  -18.91942
       H    -3.62337   -1.99979  -17.15826
       O    -2.91916   -2.66934  -16.96313
      H1    -2.70562   -2.57015  -16.02812
       H    -0.81590    4.85220  -13.70453
       O    -1.30341    4.03255  -13.86032
      H1    -1.62014    3.73924  -13.00687
       H     0.36178    3.19055  -18.01604
       O     0.74341    3.27499  -18.96450
      H1     1.63124    3.62488  -18.84634
       H    -4.79133    1.62087  -19.55593
       O    -4.04167    1.34390  -19.02452
      H1    -4.02528    1.80829  -18.16324
       H     0.41119    0.10120  -13.39075
       O    -0.17916    0.91077  -13.35928
      H1    -0.63237    0.88530  -12.50086
       H    -4.96132   -1.76853  -18.69766
       O    -4.84859   -1.23253  -17.89758
      H1    -4.72630   -0.33625  -18.17492
       H    -6.07872    0.55164  -16.93521
       O    -6.78932    1.18249  -17.16756
      H1    -6.50918    2.04731  -16.80813
       H    -0.18866    1.98883  -16.05879
       O     0.18454    2.89073  -16.17502
      H1    -0.40394    3.48957  -15.73796
       H    -2.70119    5.76096  -15.88735
       O    -3.27778    5.43506  -15.15811
      H1    -2.62836    5.13200  -14.53926
       H    -6.61393    4.16274  -17.11649
       O    -6.87471    3.80374  -16.18407
      H1    -7.82925    3.82523  -16.19473
       H    -1.32023   -0.09785  -16.26852
       O    -1.77335    0.52948  -15.69597
      H1    -1.37575    0.39393  -14.83401
       H    -2.93565    1.98404  -16.37138
       O    -3.70262    2.49328  -16.60449
      H1    -3.65540    3.40460  -16.24708
       H     0.07533   -1.12877  -17.58541
       O    -0.86541   -0.80587  -17.75819
      H1    -1.51990   -1.53572  -17.55756
       H    -1.87522    5.03426  -19.44627
       O    -0.93314    5.21855  -19.44126
      H1    -0.41572    4.35778  -19.39275
       H    -6.50474    4.06991  -14.43937
       O    -6.57556    4.12542  -13.47223
      H1    -6.86903    5.04761  -13.36886

