48
frame 3 | Written by MDAnalysis XYZWriter (release 2.4.3)
       H    10.97120  -17.28194   12.11689
       O    11.48742  -17.48731   11.32820
      H1    10.87794  -17.24363   10.65584
       H    13.03748  -17.95582   11.26758
       O    13.95999  -18.33835   11.26954
      H1    14.03713  -18.87081   10.48595
       H    15.79611  -12.99896    6.10573
       O    15.87278  -13.44214    5.24671
      H1    16.31462  -12.80445    4.66222
       H    17.16864  -15.62995   13.43862
       O    17.76459  -15.97451   12.76805
      H1    18.63496  -16.10907   13.19759
       H    13.82511  -13.30471    9.34036
       O    13.50022  -12.57320    8.82605
      H1    12.63712  -12.95021    8.56161
       H    16.95761  -17.66308   12.63241
       O    16.56700  -18.43179   12.22406
      H1    15.62456  -18.30780   12.08224
       H    14.94402  -12.02609    8.08092
       O    15.52450  -11.68602    7.38311
      H1    16.48253  -11.71069    7.62166
       H    14.70604  -13.27688   14.10003
       O    13.78487  -13.21910   13.83870
      H1    13.72022  -12.51108   13.27337
       H    17.02426  -18.30802    9.36738
       O    17.37360  -19.07565    9.83651
      H1    17.05611  -18.97766   10.79460
       H    14.42258  -15.56336   10.83710
       O    14.59596  -14.99472    9.98856
      H1    15.44722  -14.53088   10.15681
       H    13.75201  -19.88041    8.33005
       O    14.40937  -19.31075    8.72400
      H1    15.19165  -19.87679    8.67511
       H    14.31464  -11.88564   11.41212
       O    13.38613  -12.14955   11.45364
      H1    13.07301  -12.16360   10.55751
       H    13.14141  -16.02243    8.16158
       O    13.22663  -16.83693    7.72435
      H1    13.62442  -17.33031    8.44768
       H    12.53644  -15.71794   12.56194
       O    13.48474  -15.62486   12.60374
      H1    13.61556  -14.63310   12.75525
       H    18.13834  -14.16841   10.22130
       O    17.53520  -14.94287   10.22288
      H1    17.41163  -15.26707   11.14811
       H    16.97198  -15.98272    8.67459
       O    16.44546  -16.55996    8.11497
      H1    15.56350  -16.22021    8.30820

