48
frame 4 | Written by MDAnalysis XYZWriter (release 2.4.3)
       H   -12.73683  -19.47836  -17.08450
       O   -12.00989  -19.71415  -17.62316
      H1   -11.13665  -19.80031  -17.14766
       H   -12.83907  -13.06788  -17.55492
       O   -13.54149  -12.84113  -16.99232
      H1   -13.04806  -12.29401  -16.37456
       H    -9.81972  -15.14083  -15.94760
       O   -10.18206  -14.49941  -15.31773
      H1    -9.47682  -13.99165  -14.89544
       H   -11.24056  -15.27986  -11.62596
       O   -11.18844  -15.06636  -10.69307
      H1   -10.44488  -15.48501  -10.23233
       H   -14.88497  -15.66483  -18.27577
       O   -14.69489  -16.47844  -18.81112
      H1   -13.85869  -16.26903  -19.28249
       H   -12.35861  -16.16077  -13.40353
       O   -11.41789  -15.94430  -13.28676
      H1   -11.07323  -15.48512  -14.05068
       H   -14.58123  -18.64432  -15.87455
       O   -13.69517  -18.96197  -15.63759
      H1   -13.89471  -19.67659  -15.03955
       H   -16.83758  -18.80024  -18.63918
       O   -17.23646  -18.90549  -19.52499
      H1   -16.87051  -18.08047  -19.91142
       H   -14.81653  -13.81425  -16.74726
       O   -15.45953  -14.60263  -16.72571
      H1   -16.36721  -14.24813  -16.66409
       H   -16.50166  -17.56547  -16.64673
       O   -15.88348  -18.22916  -17.02622
      H1   -15.35859  -17.71448  -17.67533
       H   -15.65113  -14.37579  -13.55025
       O   -15.81817  -15.09780  -14.18639
      H1   -15.64815  -14.83792  -15.07428
       H    -9.47165  -17.21518  -16.18391
       O    -9.44086  -16.46575  -16.76238
      H1    -8.48682  -16.41235  -16.86515
       H   -12.64285  -18.78064  -10.94382
       O   -13.56333  -18.41003  -10.90576
      H1   -13.62188  -17.76744  -11.60981
       H   -10.53911  -17.59643  -13.00147
       O    -9.78532  -18.18191  -13.05318
      H1    -8.96471  -17.68059  -12.90475
       H   -18.29833  -17.26719  -15.49631
       O   -17.65960  -16.73167  -15.96092
      H1   -17.20638  -16.14170  -15.31831
       H   -13.73190  -17.49310  -14.59820
       O   -13.83764  -16.87243  -13.84339
      H1   -14.52289  -16.26891  -14.16047

