48
frame 4 | Written by MDAnalysis XYZWriter (release 2.4.3)
       H    14.84155    5.52131   17.79307
       O    14.48306    5.30212   16.87025
      H1    14.41735    6.19542   16.45575
       H    16.67277    5.82897   11.38251
       O    15.99477    6.51973   11.06158
      H1    15.10800    6.31901   11.44305
       H    12.96592    4.68211   17.57262
       O    12.10165    4.53067   17.99093
      H1    11.77118    3.59758   17.94967
       H    14.83649    3.38657   13.22749
       O    14.03413    3.66834   13.70161
      H1    14.22481    3.77351   14.64422
       H    12.53115    7.93721   14.68366
       O    11.97303    7.77374   13.90257
      H1    11.28554    8.47524   13.94588
       H    15.84468    7.63999   19.44878
       O    15.74188    6.70563   19.28401
      H1    16.49370    6.24001   19.00535
       H    14.55925   10.65998   14.20158
       O    14.23296    9.79061   13.89923
      H1    13.58535   10.03065   13.20892
       H    18.13769    8.78455   14.18881
       O    18.95390    8.88831   13.62918
      H1    19.68500    8.91260   14.21803
       H    13.08624    6.75101   12.99029
       O    13.56026    6.09807   12.50651
      H1    13.56773    5.34174   13.09198
       H    18.11792    5.71246   15.93755
       O    18.73973    6.40544   15.54724
      H1    18.51840    7.26836   16.03541
       H    15.64892    8.90693   14.14432
       O    16.41457    8.31611   14.34031
      H1    16.42489    7.64222   13.62338
       H    16.06974    4.86773   16.24150
       O    16.95318    4.45044   16.32487
      H1    16.95626    4.02401   17.18938
       H    15.93865   12.54851   14.82603
       O    15.25836   12.02188   15.23695
      H1    14.59231   12.67012   15.58122
       H    14.68636    8.05210   15.21021
       O    13.94029    7.75451   15.72390
      H1    13.62218    8.34889   16.36374
       H    16.48743   10.03998   18.66762
       O    16.98112    9.35647   19.15573
      H1    17.47387    9.88925   19.83655
       H    13.11961   10.27040   18.39439
       O    12.68994    9.46686   18.07122
      H1    12.86322    8.85235   18.84349

