48
frame 3 | Written by MDAnalysis XYZWriter (release 2.4.3)
       H    -2.54310   -2.31812   11.82249
       O    -3.39330   -1.83106   11.70078
      H1    -3.27309   -0.92690   11.47147
       H    -0.88814    3.65595   12.85926
       O    -1.53895    3.56897   13.58065
      H1    -1.02445    2.96153   14.13899
       H    -0.70755   -0.77831   13.17020
       O    -0.93416   -0.50844   12.24113
      H1    -1.66363    0.13128   12.45850
       H    -0.35536    1.16788   15.44651
       O    -0.54675    2.09993   15.73901
      H1    -0.67197    1.98422   16.64753
       H     2.29610   -0.16292    9.81559
       O     2.25606    0.51006    9.08214
      H1     3.18221    0.78197    8.90881
       H    -0.77951   -4.37739   12.74380
       O    -1.75143   -4.10301   12.80810
      H1    -1.77747   -3.83423   13.72494
       H     2.74336   -1.07298   13.14201
       O     2.68810   -1.75595   13.84731
      H1     3.16766   -1.41159   14.58794
       H     1.12352   -1.09735   14.47354
       O     0.26699   -0.89431   14.87645
      H1     0.03026   -1.60868   15.49897
       H     0.68474   -1.29734   11.31409
       O     1.53862   -1.51654   10.96918
      H1     1.51735   -2.26927   10.31786
       H    -4.87097   -1.93961   12.84393
       O    -5.75010   -1.85106   13.21156
      H1    -6.15492   -2.73629   13.32185
       H     0.08826    3.20383    8.37185
       O     0.55761    2.92294    9.18005
      H1     0.85884    1.99387    9.02699
       H    -0.01213    1.12134   12.52969
       O     0.34406    1.92390   12.04098
      H1     0.21436    1.74486   11.10122
       H    -2.51603    2.05502   13.23771
       O    -2.85801    1.27459   12.70711
      H1    -3.36886    0.81308   13.31539
       H     3.01170    1.59151   13.09919
       O     2.96295    0.85283   12.43948
      H1     2.12086    0.97218   11.94676
       H    -3.72463    1.91107   11.18310
       O    -4.61924    1.94495   10.64245
      H1    -5.08715    1.14836   10.96364
       H     0.62625    5.36767   10.95660
       O     0.72162    4.75301   11.66928
      H1     0.65155    3.85155   11.27306

