48
frame 3 | Written by MDAnalysis XYZWriter (release 2.4.3)
       H   -10.92461    5.51932   12.47656
       O   -11.83727    5.76561   12.68073
      H1   -11.88343    6.75770   12.66689
       H   -16.09457   12.10222   12.39015
       O   -16.97031   11.94508   12.74615
      H1   -17.57138   12.42074   12.16516
       H   -11.16815    8.00969   10.55023
       O   -11.49959    7.59950    9.70292
      H1   -12.46836    7.78471    9.76024
       H   -14.57736   12.30573   15.78378
       O   -13.96426   12.20946   15.07326
      H1   -13.68439   13.03700   14.77430
       H   -14.81499    5.26934   14.16832
       O   -14.55889    5.78629   13.39503
      H1   -13.55975    5.69356   13.39769
       H   -14.83396    7.48687    9.26808
       O   -14.14034    7.98386    9.72713
      H1   -14.09903    8.79635    9.22245
       H   -17.54223    6.91797   13.70139
       O   -17.44509    7.88109   13.82337
      H1   -16.65316    8.12794   13.34987
       H   -11.70418   10.84613   16.98064
       O   -11.50029   11.64863   16.40367
      H1   -12.31680   11.84885   15.98532
       H   -13.35272   11.05660   13.75302
       O   -12.99934   10.31439   13.21763
      H1   -13.85016    9.86445   13.13506
       H   -13.05397    8.74969   14.55009
       O   -13.00411    8.20014   15.39202
      H1   -13.83631    7.75402   15.38439
       H   -13.39332   10.40733   11.50504
       O   -13.73441   10.65194   10.65680
      H1   -14.60050   10.25662   10.62195
       H   -14.79521    8.50270   11.79229
       O   -14.96394    8.54179   12.75462
      H1   -14.72600    7.66938   13.07042
       H    -9.00744   10.10561   14.75239
       O    -9.89221    9.68760   14.78518
      H1   -10.38119   10.38592   15.30105
       H   -14.21867   12.25769   11.24280
       O   -14.71095   13.01288   11.70334
      H1   -13.94382   13.38679   12.22032
       H   -11.73138    9.25002   12.75294
       O   -11.22100    8.47993   12.41088
      H1   -10.34953    8.69334   12.68452
       H   -16.87419   11.22640   10.55559
       O   -16.37620   10.95287    9.77181
      H1   -15.90906   11.76541    9.42144

