48
frame 3 | Written by MDAnalysis XYZWriter (release 2.4.3)
       H    18.07518   -5.61510   -2.86524
       O    18.26628   -5.53164   -3.82717
      H1    17.55329   -4.89483   -4.08566
       H    18.05464   -0.92478  -11.61353
       O    18.56135   -1.67182  -12.04041
      H1    19.41017   -1.30481  -12.34863
       H    14.34913   -2.35634  -11.68248
       O    14.29330   -2.89143  -10.90604
      H1    13.28403   -2.95757  -10.71560
       H    14.64267   -3.73902   -7.68094
       O    14.52197   -4.66337   -7.47505
      H1    13.59154   -4.74413   -7.17991
       H    20.00074   -4.12856  -10.90979
       O    19.50137   -4.92066  -11.14218
      H1    18.61279   -4.62256  -11.28937
       H    13.56553   -7.55358   -5.94061
       O    14.22304   -7.58050   -6.65896
      H1    14.43862   -6.66499   -6.97161
       H    17.70558   -6.95144   -6.80916
       O    18.37814   -6.42465   -7.22901
      H1    18.90744   -6.06824   -6.51373
       H    16.17374   -1.76271   -8.30125
       O    15.42221   -1.36608   -8.69258
      H1    15.21510   -1.91721   -9.46262
       H    15.71242   -4.35920   -4.68316
       O    16.42945   -3.75964   -4.92012
      H1    16.27481   -3.00945   -4.39375
       H    16.87158   -7.31993  -10.08557
       O    15.91562   -7.47953  -10.32979
      H1    15.78682   -8.33483   -9.88655
       H    18.65578   -6.75403   -8.97042
       O    18.82276   -7.14770   -9.87723
      H1    19.17984   -6.36168  -10.37967
       H    15.12907   -6.40335  -11.45013
       O    14.59111   -5.70401  -11.97635
      H1    14.42521   -4.98828  -11.36141
       H    14.66445   -0.05766   -7.38015
       O    14.50688    0.60207   -6.71766
      H1    13.53294    0.66423   -6.82337
       H    16.41014    0.99363  -10.64237
       O    17.04422    0.28420  -10.33928
      H1    16.48920   -0.19937   -9.71731
       H    17.43392   -2.78998   -6.51796
       O    17.54243   -2.65367   -7.49438
      H1    17.32673   -3.52955   -7.88598
       H    16.30511   -5.19597   -9.81559
       O    16.73033   -4.36129   -9.91095
      H1    16.11192   -3.90959  -10.52024

