48
frame 4 | Written by MDAnalysis XYZWriter (release 2.4.3)
       H     6.91781    7.56801   12.44158
       O     7.70481    7.12310   12.03452
      H1     7.88164    7.76148   11.38185
       H     6.60123    3.92599   10.14977
       O     5.69900    3.60790   10.12598
      H1     5.62357    2.82156   10.59454
       H     4.82433    4.37941   17.93516
       O     4.38810    5.18567   18.34836
      H1     4.25755    5.81195   17.63204
       H     2.74092    6.05801   16.23913
       O     3.50428    6.58385   15.98844
      H1     3.24822    7.52815   15.99562
       H     4.76309    3.49912   14.51713
       O     4.76320    2.66915   15.04462
      H1     3.91176    2.62836   15.47772
       H     4.47472    5.62499   14.56280
       O     4.75062    5.00181   13.88172
      H1     4.24214    5.20117   13.08525
       H     6.31181    2.09182   13.98078
       O     7.19556    1.99558   13.55144
      H1     6.88453    2.05970   12.63900
       H     7.88881    6.67862   15.29993
       O     6.94866    6.58486   15.50357
      H1     6.66386    5.83988   14.99117
       H     0.54275    6.10449   14.36309
       O     1.07077    6.90992   13.97675
      H1     1.06448    7.58354   14.64171
       H     1.57762    2.40807   15.95634
       O     2.20493    2.95744   16.48839
      H1     2.42857    2.37598   17.31418
       H     2.20166    5.09215   11.65746
       O     2.74126    5.78549   11.98119
      H1     2.16510    6.24226   12.72725
       H     2.97350    7.25884   11.18685
       O     3.18192    8.15745   10.87871
      H1     4.02905    8.25285   11.33917
       H     9.07715    4.13216   14.33825
       O     8.48568    3.82566   14.98203
      H1     8.04875    3.14200   14.45491
       H     4.12248    1.39483   13.69486
       O     3.97349    0.77207   12.98141
      H1     3.07218    0.98590   12.65661
       H     5.18063    9.15096   13.52498
       O     5.53790    8.82381   12.66346
      H1     5.80561    9.60204   12.17905
       H     5.89234    7.77440   15.84512
       O     5.50850    8.65346   16.02228
      H1     5.31961    8.71669   16.96669

