48
frame 4 | Written by MDAnalysis XYZWriter (release 2.4.3)
       H   -15.61913   -5.24817   10.53208
       O   -16.10422   -6.12107   10.40799
      H1   -16.89812   -5.74368    9.89889
       H   -17.01154   -4.34889   13.02855
       O   -16.45436   -3.61404   13.29409
      H1   -16.70125   -3.52281   14.23370
       H   -13.54314  -11.27689   15.47123
       O   -12.94588  -11.74715   16.09038
      H1   -12.48445  -11.20031   16.72488
       H   -13.44392   -7.65160    8.57038
       O   -14.32828   -8.01602    8.83190
      H1   -14.85458   -7.23854    9.01704
       H   -16.98634   -7.50165   11.73871
       O   -17.72971   -8.13560   11.84430
      H1   -18.23991   -8.11612   11.03674
       H   -12.28277  -10.21566   11.49087
       O   -11.47064  -10.67148   11.68399
      H1   -11.72482  -11.60015   11.96185
       H   -17.07182   -8.46588   13.85343
       O   -16.95777   -8.88882   14.69449
      H1   -16.14485   -9.39178   14.61988
       H   -17.57874   -5.94464   14.10209
       O   -18.39799   -5.65802   13.69865
      H1   -18.63499   -6.23899   12.96029
       H   -13.03570   -7.49061   12.48656
       O   -13.72580   -7.54141   13.15177
      H1   -13.86540   -6.63527   13.34288
       H   -14.68633   -9.71632   11.55582
       O   -14.34509   -9.90039   10.70457
      H1   -14.34509   -9.09094   10.10967
       H   -13.51044   -6.20949   16.93249
       O   -13.90743   -5.55907   16.39587
      H1   -14.79590   -5.67527   16.09830
       H   -16.45569   -7.36346   15.37833
       O   -16.36393   -6.39671   15.53971
      H1   -16.71520   -6.21882   16.37210
       H   -11.61525   -6.66565   13.54616
       O   -11.46109   -5.90273   12.98264
      H1   -12.25884   -5.31122   13.16425
       H   -10.01829   -8.25188   13.44127
       O   -10.70660   -8.69959   13.99579
      H1   -11.09513   -9.46798   13.50903
       H   -13.73888   -4.71858   14.74323
       O   -14.01532   -4.58312   13.81250
      H1   -14.84445   -4.11303   13.82819
       H   -14.91719  -10.79784   13.83690
       O   -14.61180  -10.20034   14.56359
      H1   -13.99065   -9.52514   14.32098

