48
frame 5 | Written by MDAnalysis XYZWriter (release 2.4.3)
       H     9.32237  -15.03450  -17.01502
       O    10.23509  -14.78941  -16.87732
      H1    10.69566  -14.93013  -17.78188
       H    12.30264  -18.09963  -16.69792
       O    12.53253  -18.33457  -15.77454
      H1    11.81344  -17.81985  -15.28335
       H     5.81773  -16.36295  -16.60081
       O     5.75940  -15.79876  -15.79870
      H1     6.57830  -15.93329  -15.36081
       H     9.73247  -13.31181  -17.66920
       O     9.41603  -12.60125  -18.26871
      H1     8.48271  -12.70711  -18.35262
       H    13.95068  -16.78746  -14.85092
       O    14.73277  -16.95201  -14.35358
      H1    14.55999  -17.87548  -14.01532
       H    13.22309  -19.26887  -10.66808
       O    13.56144  -19.24072  -11.56871
      H1    12.82921  -19.41762  -12.19940
       H    11.96135  -14.12162  -19.58762
       O    11.88845  -14.85035  -18.96105
      H1    12.68718  -14.73127  -18.40992
       H     7.89113  -17.75473  -15.64259
       O     7.65285  -18.66505  -15.87440
      H1     7.99137  -18.73935  -16.81011
       H    10.91584  -15.92549  -14.12960
       O    10.66071  -16.57520  -14.78931
      H1    10.56415  -15.95115  -15.47670
       H    12.01834  -14.79126  -12.23917
       O    12.24642  -14.98571  -13.15410
      H1    12.49416  -14.13092  -13.57750
       H     8.70202  -14.03796  -12.92065
       O     8.85480  -13.59292  -12.09227
      H1     9.17815  -14.27828  -11.45518
       H     7.75535  -19.06487  -12.86897
       O     7.14956  -18.37534  -12.44181
      H1     6.55771  -18.97198  -11.99327
       H    14.72185  -15.55563  -16.63043
       O    14.41589  -15.94815  -17.43933
      H1    13.91366  -16.76022  -17.30616
       H     8.41193  -16.47402  -18.45720
       O     8.05423  -15.76706  -17.86178
      H1     7.44484  -15.25792  -18.43001
       H     8.98208  -16.34587  -14.13063
       O     8.09815  -16.01820  -14.01100
      H1     7.66565  -16.52635  -13.26345
       H    12.76535  -16.08697   -9.73413
       O    12.36469  -16.24869  -10.60024
      H1    13.12876  -16.31547  -11.15551

