48
frame 5 | Written by MDAnalysis XYZWriter (release 2.4.3)
       H   -12.07755  -13.44814  -16.52413
       O   -12.42072  -12.57414  -16.71819
      H1   -12.72337  -12.18822  -15.92800
       H   -10.60829  -15.48679  -16.49122
       O   -11.18385  -15.03350  -15.86659
      H1   -10.59525  -14.54043  -15.32768
       H   -11.01850  -11.88540  -18.81600
       O   -11.61185  -11.87290  -19.55884
      H1   -11.11652  -11.31026  -20.14380
       H    -6.16645  -12.07679  -15.75425
       O    -6.08267  -12.98689  -15.38182
      H1    -5.29740  -13.29140  -15.80366
       H   -11.51811  -15.24524  -11.96036
       O   -11.11911  -14.52627  -11.42721
      H1   -10.49865  -14.94754  -10.81827
       H   -10.11991  -10.10585  -13.45294
       O   -10.90911  -10.50044  -13.83833
      H1   -10.67013  -11.32094  -14.23363
       H    -9.55501  -13.50301  -12.70531
       O    -8.68354  -13.03446  -12.53602
      H1    -7.97920  -13.67671  -12.20176
       H   -12.48352  -16.79985  -13.51969
       O   -11.64894  -16.29933  -13.46845
      H1   -11.42239  -15.92461  -14.32885
       H    -7.04755   -9.78368  -14.82329
       O    -6.37563   -9.97852  -15.51814
      H1    -6.70708   -9.53448  -16.30437
       H    -9.29095  -12.77443  -14.40065
       O    -9.98836  -12.74415  -15.07936
      H1    -9.52723  -12.63110  -15.92572
       H   -14.17288  -12.50339  -13.93280
       O   -13.51244  -13.16747  -13.59530
      H1   -12.95399  -12.67850  -12.97523
       H    -8.02648   -9.97020  -12.75503
       O    -8.39379   -9.44679  -13.45999
      H1    -8.17425   -8.51136  -13.33649
       H   -11.38631  -11.32357  -12.56137
       O   -11.82535  -11.77814  -11.77522
      H1   -11.44312  -12.66158  -11.44568
       H    -9.45435  -17.33608  -16.97437
       O    -9.27678  -16.39256  -17.16894
      H1    -8.31693  -16.15354  -17.09582
       H    -8.45137  -12.94996  -18.03767
       O    -9.12762  -12.45511  -17.62249
      H1    -8.92279  -11.53765  -17.79248
       H   -12.14539   -9.59231  -16.94922
       O   -11.84867   -9.14689  -16.14603
      H1   -11.37048   -9.74067  -15.61651

