48
frame 4 | Written by MDAnalysis XYZWriter (release 2.4.3)
       H     3.45347   -3.23142   14.01784
       O     3.89962   -4.11455   13.88599
      H1     3.27282   -4.77894   14.13893
       H     7.98045   -1.34651   11.40185
       O     7.37855   -0.99764   10.71032
      H1     6.79052   -1.73960   10.61544
       H     5.15617   -3.10117    9.03910
       O     5.59504   -3.37778    9.85435
      H1     4.97988   -4.00259   10.26010
       H     3.71875   -2.46765    6.71391
       O     4.18779   -3.33175    6.93701
      H1     3.51788   -4.03297    7.04634
       H     7.26595   -4.21678    9.44359
       O     8.20396   -4.45935    9.32678
      H1     8.28275   -5.13201    8.68429
       H     3.96724    0.34494    9.85969
       O     3.57818    0.22501    8.99228
      H1     4.11402    0.80895    8.42548
       H     8.31129   -6.17532   12.24131
       O     7.60582   -5.56347   11.83860
      H1     7.88209   -5.45276   10.90056
       H     3.67340   -6.32552    9.94888
       O     2.78235   -6.44401    9.68928
      H1     2.28705   -5.86264   10.34043
       H     8.09576   -3.59318   12.27221
       O     8.60575   -2.81628   12.53211
      H1     8.69518   -2.88415   13.49899
       H     5.95608   -6.35687    7.08367
       O     5.05784   -6.69960    7.07292
      H1     4.92182   -6.72795    6.15938
       H     4.40475   -4.75607   12.35441
       O     4.83224   -5.29851   11.65647
      H1     5.74865   -5.35062   11.97592
       H     2.97770   -0.29980    6.09567
       O     2.80212   -0.93421    6.85046
      H1     3.26256   -0.40598    7.58323
       H     7.79482   -2.36779    6.01891
       O     7.23825   -1.78670    5.44019
      H1     6.57442   -2.34877    5.03456
       H     6.33011    0.42485   10.86683
       O     5.62273    1.04849   10.94536
      H1     5.06782    0.82175   11.72409
       H     8.44085   -3.72769    7.64847
       O     8.95873   -3.35768    6.90448
      H1     8.82797   -3.92403    6.16333
       H     9.81395   -4.03259    9.88768
       O    10.70105   -3.74087   10.19343
      H1    10.41947   -3.38593   11.00016

