48
frame 5 | Written by MDAnalysis XYZWriter (release 2.4.3)
       H    16.23001   -1.11227   13.43347
       O    16.43777   -1.70678   14.16416
      H1    16.08638   -1.24002   14.92043
       H    19.64446    0.52489   10.65751
       O    18.81996    0.57083   11.20155
      H1    18.78013    1.46333   11.54840
       H    16.27922    5.79035   10.91422
       O    15.54048    6.45742   11.04088
      H1    14.87567    6.04247   11.60947
       H    18.42267    5.51090    9.27306
       O    18.03769    5.37873   10.17078
      H1    18.19063    4.45892   10.13233
       H    16.52380    0.84939   15.87205
       O    15.91840    0.15060   16.19827
      H1    16.11095    0.04186   17.15654
       H    18.42080    2.59048   14.03686
       O    18.83946    2.84288   13.16752
      H1    19.75025    3.11363   13.43039
       H    14.06650    2.44662   12.87629
       O    13.32751    1.89959   13.14411
      H1    12.97484    1.59196   12.30972
       H    16.03122    3.35741   13.38364
       O    15.23721    3.57523   13.90578
      H1    15.10712    2.85886   14.53667
       H    18.81683    2.18292    9.90381
       O    19.21704    2.92035    9.44690
      H1    18.69751    3.04225    8.64987
       H    17.63271    0.87521    8.07823
       O    16.95485    0.83040    8.79516
      H1    16.44113    0.02281    8.78886
       H    15.43322   -0.34707   11.38118
       O    16.10918   -0.00903   12.05127
      H1    16.94992   -0.17064   11.59538
       H    16.27900    2.45978   10.57096
       O    16.35684    2.57538   11.50650
      H1    16.26184    1.64531   11.85384
       H    19.66549   -0.33075   14.96790
       O    19.20407   -1.13494   14.70572
      H1    18.27492   -0.91625   14.57486
       H    17.99873    7.36055   14.73674
       O    18.85009    7.35573   15.20011
      H1    18.84268    7.63915   16.11322
       H    15.49762    5.28741   15.63201
       O    16.11660    5.21000   16.35457
      H1    15.69487    5.05949   17.19739
       H    18.12888    1.87253   16.55193
       O    17.65686    2.22749   15.82851
      H1    17.18303    2.98458   16.16297

