48
frame 5 | Written by MDAnalysis XYZWriter (release 2.4.3)
       H     7.77043  -17.31738   17.14012
       O     8.65517  -16.97871   17.10829
      H1     8.60505  -16.02231   16.84969
       H     9.04739  -13.61428   13.41380
       O     9.34322  -14.29400   14.05047
      H1     8.63414  -14.41353   14.69669
       H    12.63297  -13.56928   14.74687
       O    11.95800  -13.43660   15.42049
      H1    11.07348  -13.57770   15.01258
       H    12.22045  -11.54342   15.31850
       O    11.99396  -10.60436   15.06006
      H1    11.72287  -10.63842   14.13775
       H    10.22737  -15.93034   13.84834
       O    10.77487  -16.71186   13.97257
      H1    10.51326  -17.20234   14.76497
       H    14.56113  -13.11045   17.35327
       O    14.93941  -12.26220   17.11463
      H1    14.40707  -11.68774   17.73006
       H    11.56715  -10.27765   16.92333
       O    10.94536  -10.13167   17.68476
      H1    10.97514  -10.97704   18.17842
       H    10.66151  -12.44188   19.59692
       O    11.09678  -12.67925   18.77892
      H1    10.55546  -13.36493   18.42944
       H    14.63021   -8.82365   14.78284
       O    13.98562   -8.92333   14.05218
      H1    13.42658   -9.64010   14.37455
       H    11.09562  -11.15889   12.32593
       O    11.52383  -10.27771   12.50440
      H1    12.48951  -10.41415   12.33522
       H    14.70950  -13.97376   13.67172
       O    13.85067  -13.50540   13.32354
      H1    14.12823  -12.70420   12.86403
       H    12.80459  -15.70094   17.51013
       O    12.01661  -15.63796   16.97292
      H1    12.11710  -14.82055   16.43317
       H    14.93418  -14.61745   18.85998
       O    14.34411  -15.09147   18.19654
      H1    14.85816  -15.94187   18.19452
       H    10.12849  -18.01481   16.67722
       O    11.09643  -18.23485   16.59419
      H1    11.45640  -17.31464   16.64734
       H    13.52536  -16.07947   11.18757
       O    13.68237  -15.17298   10.97959
      H1    13.71472  -14.74073   11.89218
       H    16.44757  -15.83759   15.69628
       O    15.91412  -15.79827   14.91243
      H1    15.20084  -16.43293   14.93044

