48
frame 4 | Written by MDAnalysis XYZWriter (release 2.4.3)
       H     6.54182   -5.99464  -13.05240
       O     7.22102   -6.64093  -12.78947
      H1     7.95940   -6.11485  -12.39425
       H     5.96811   -4.99550  -14.80084
       O     6.54815   -4.27217  -14.41114
      H1     6.07739   -3.46247  -14.36304
       H     2.35485   -4.46329  -19.65808
       O     2.35954   -5.29322  -19.12083
      H1     2.80519   -5.87758  -19.78054
       H     8.13678   -0.82778  -19.17418
       O     7.93163   -0.86182  -18.22795
      H1     8.47561   -1.60980  -17.92350
       H     5.16891   -5.12196  -17.86791
       O     5.90408   -5.72508  -17.83917
      H1     6.76713   -5.24920  -17.75207
       H     4.43875   -8.40681  -16.44139
       O     5.06836   -8.17677  -17.10279
      H1     5.23803   -7.18673  -17.19608
       H     4.92397   -8.77155  -18.69643
       O     4.55633   -8.98604  -19.56233
      H1     5.02920   -9.73957  -19.86783
       H     6.75433   -8.86640  -16.71014
       O     7.61437   -9.31663  -16.57036
      H1     8.31168   -8.87675  -17.04682
       H     9.46013   -2.28144  -15.40690
       O     8.68421   -2.65526  -15.92782
      H1     8.20039   -3.32643  -15.49806
       H     9.27829   -6.04108  -18.77375
       O    10.04716   -6.64737  -18.94558
      H1     9.95558   -6.86069  -19.86815
       H     3.73522   -7.76589  -14.67790
       O     3.34682   -8.56761  -15.11449
      H1     3.75299   -9.28185  -14.63015
       H     3.73536   -5.72740  -13.56254
       O     4.21948   -6.09007  -14.29868
      H1     3.89154   -5.52016  -15.01325
       H     2.92872   -3.74030  -16.38588
       O     2.98299   -4.69479  -16.39244
      H1     3.00154   -4.90747  -17.33518
       H     3.16987   -1.38283  -16.67262
       O     3.93164   -1.91525  -16.38762
      H1     4.76141   -1.35336  -16.45837
       H     8.27843   -3.74006  -17.40322
       O     8.13702   -4.45039  -18.05878
      H1     8.30208   -4.10496  -18.94872
       H     4.43608   -2.43026  -18.39150
       O     4.27828   -1.91796  -19.20539
      H1     4.57430   -1.00300  -19.07640

