48
frame 4 | Written by MDAnalysis XYZWriter (release 2.4.3)
       H     7.42810    3.66068    4.27942
       O     8.06470    2.91364    4.34147
      H1     7.73352    2.45596    5.12770
       H     3.19178    4.46489    0.77218
       O     3.67608    3.87054    0.17752
      H1     2.95979    3.46133   -0.29957
       H     5.92640    5.27207    3.88853
       O     5.64459    4.62396    4.55676
      H1     5.73723    4.99335    5.47074
       H     5.28843    2.20873   -0.13737
       O     6.10522    2.39572   -0.64493
      H1     5.93910    3.02426   -1.37897
       H    10.37326    4.81157    1.39166
       O    10.18036    4.05949    0.78907
      H1    10.86054    4.20233    0.16176
       H     7.31083    6.91955    3.71091
       O     6.56924    6.65803    3.12442
      H1     6.91195    6.38978    2.30156
       H     5.31159    8.04973    0.12069
       O     5.99195    8.45735    0.64745
      H1     6.06970    9.38748    0.43268
       H     8.05268    7.77883    0.23826
       O     8.91513    7.33385    0.04757
      H1     8.67412    6.40436    0.07296
       H     7.12232    1.80563   -3.70497
       O     6.92850    1.09749   -3.08742
      H1     6.67401    1.54852   -2.28677
       H     4.50343    4.47995   -1.85842
       O     5.28421    4.26168   -2.35659
      H1     5.78991    5.02720   -2.47135
       H     7.04483    7.80669   -2.38033
       O     6.48267    7.02333   -2.45409
      H1     6.09301    7.15521   -3.29162
       H     9.91977    7.09181    1.50003
       O    10.28055    6.48376    2.17456
      H1    11.13999    6.93615    2.48762
       H     3.97535    7.85847    4.34546
       O     4.64211    8.39146    3.81022
      H1     5.28449    7.75886    3.48951
       H     6.85789    4.60824    0.76348
       O     7.60411    5.17777    1.11161
      H1     8.27759    4.48205    1.05516
       H     9.74070    5.40448   -2.69131
       O     9.29362    6.12890   -3.15780
      H1     8.55718    6.41864   -2.63432
       H     9.24057    0.95558   -0.29439
       O     9.37766    0.29150    0.38187
      H1    10.08592    0.60294    0.92542

