48
frame 5 | Written by MDAnalysis XYZWriter (release 2.4.3)
       H   -10.88766  -17.02975   -8.86127
       O   -10.26791  -16.71832   -9.53244
      H1    -9.65534  -17.45930   -9.60964
       H   -10.66809  -16.22386   -3.63764
       O   -10.45509  -15.94147   -4.53548
      H1    -9.49896  -16.08844   -4.81834
       H   -14.77922  -17.70289   -7.90229
       O   -14.23070  -18.50279   -7.78498
      H1   -14.06544  -18.77003   -8.69852
       H   -17.49054  -15.37056   -7.63678
       O   -16.66668  -15.75733   -8.05439
      H1   -16.84150  -15.44305   -8.94122
       H   -10.80800  -14.93281   -7.31960
       O   -10.52326  -14.07064   -7.36112
      H1   -10.12591  -13.85918   -6.48266
       H    -9.99525  -13.97416   -4.68421
       O    -9.57830  -13.26920   -5.09003
      H1   -10.17971  -12.53368   -4.93325
       H   -16.09134  -11.31826   -3.82909
       O   -15.58226  -12.17198   -3.67838
      H1   -15.84716  -12.41038   -2.74767
       H   -14.20848  -13.04561   -4.86271
       O   -13.34697  -13.26969   -5.18554
      H1   -13.09129  -12.52701   -5.72447
       H   -12.41472  -16.67694   -7.03189
       O   -11.50788  -16.84387   -6.93519
      H1   -11.29072  -16.47983   -6.03612
       H   -11.80189  -10.80386   -8.04901
       O   -12.48789  -10.35813   -7.54440
      H1   -13.23947  -10.95903   -7.48245
       H   -14.51323  -19.24853   -4.86922
       O   -14.07134  -18.39462   -5.11373
      H1   -13.81634  -18.43542   -6.08543
       H   -14.68895  -12.16359   -8.35793
       O   -14.61661  -11.82521   -7.44222
      H1   -15.47690  -11.43994   -7.38178
       H   -15.05377  -15.34933   -3.59613
       O   -15.70522  -15.53291   -4.33508
      H1   -15.39724  -16.43097   -4.64969
       H   -13.19607  -14.09720   -9.62755
       O   -14.06237  -13.92255   -9.32451
      H1   -14.07788  -14.41933   -8.49343
       H   -13.20174  -14.13825   -3.62025
       O   -13.33957  -14.70197   -2.84448
      H1   -13.12878  -15.58194   -3.20827
       H   -14.88845  -15.38995   -7.08913
       O   -13.89173  -15.56863   -6.98251
      H1   -13.62582  -14.83741   -6.42306

