48
frame 0 | Written by MDAnalysis XYZWriter (release 2.4.3)
       H   -17.31041    5.75332   19.27739
       O   -17.87124    6.25192   19.84765
      H1   -17.62776    7.21563   19.72425
       H   -13.09998    2.87469   18.04704
       O   -12.38588    2.51419   18.59167
      H1   -12.13958    3.15131   19.26480
       H   -17.68793    4.98537   15.20450
       O   -16.90388    4.59271   14.74031
      H1   -16.94725    3.74078   15.14838
       H   -15.17255    2.51265   16.53995
       O   -14.39786    3.05678   16.82475
      H1   -13.86045    3.20759   16.07651
       H   -18.91267    2.58080   13.17800
       O   -18.37862    3.22041   12.67449
      H1   -17.86132    3.67537   13.36530
       H   -19.83247   -1.76977   19.44877
       O   -19.47891   -2.63602   19.17267
      H1   -19.35870   -2.45916   18.20635
       H   -15.99732   -0.13851   14.31456
       O   -15.92070   -0.24840   15.25034
      H1   -16.19747   -1.20182   15.34466
       H   -16.41544   -1.19840   18.63395
       O   -17.24913   -0.97053   19.06497
      H1   -17.70063   -1.77923   19.31285
       H   -16.43976    3.06954   18.97664
       O   -15.98341    2.50328   19.65825
      H1   -15.46063    1.90208   19.11846
       H   -18.98977   -3.95008   15.99863
       O   -19.36660   -3.19113   16.40576
      H1   -19.61484   -2.70833   15.63391
       H   -15.26793    4.84289   17.76464
       O   -15.42617    5.31725   18.51204
      H1   -14.79441    4.96566   19.13401
       H   -16.15558   -2.79715   16.86748
       O   -16.80882   -2.63272   16.16746
      H1   -17.65912   -2.81651   16.57533
       H   -14.15014    6.85961   15.51560
       O   -14.13827    5.89672   15.49205
      H1   -15.01208    5.65234   15.80839
       H   -18.78038    1.97243   18.30566
       O   -18.92304    1.12860   17.92754
      H1   -18.18007    0.62832   18.21573
       H   -18.24728    1.66295   16.43392
       O   -17.74897    1.91429   15.57722
      H1   -17.05469    1.19570   15.45428
       H   -19.58372    3.88353   18.85781
       O   -18.69703    3.76642   18.46313
      H1   -18.83954    4.18222   17.58580

