48
frame 5 | Written by MDAnalysis XYZWriter (release 2.4.3)
       H    -9.83939   -1.77681   -9.00685
       O    -8.98921   -2.09876   -9.21502
      H1    -8.55077   -1.26275   -9.31214
       H    -2.95843   -4.69873   -7.62779
       O    -3.59942   -5.29525   -7.21626
      H1    -3.99499   -5.94093   -7.90552
       H    -7.43632   -4.42537  -10.57509
       O    -6.80920   -4.74226   -9.89315
      H1    -7.09440   -5.60066   -9.67932
       H    -7.83878   -4.55016   -4.56804
       O    -7.76001   -3.91642   -5.32122
      H1    -7.06435   -4.16222   -5.92333
       H    -9.20323   -5.73075   -6.54722
       O    -8.76069   -6.56897   -6.35251
      H1    -7.92857   -6.53929   -6.89459
       H   -10.11811   -6.89284  -10.60280
       O    -9.81906   -7.16709  -11.50698
      H1   -10.57796   -7.70898  -11.76305
       H    -6.50441   -2.50905  -11.79480
       O    -5.94370   -1.70672  -11.70345
      H1    -6.51720   -1.00980  -12.06635
       H    -7.14846   -8.32073  -10.23792
       O    -7.30619   -7.68562   -9.55716
      H1    -6.44952   -7.52333   -9.14106
       H    -4.44016   -6.69808   -9.33670
       O    -4.90887   -7.08261   -8.50460
      H1    -4.46870   -7.90805   -8.32560
       H    -3.51163   -4.54211  -10.46048
       O    -3.71742   -5.52176  -10.45275
      H1    -4.11151   -5.69948  -11.30056
       H    -9.13541   -3.79661   -6.33067
       O    -9.80468   -4.11032   -6.96590
      H1    -9.38369   -3.89094   -7.84174
       H    -4.81548   -6.15136  -13.36030
       O    -4.95528   -6.88731  -12.72361
      H1    -5.92936   -7.01413  -12.74265
       H    -8.90924   -3.91387  -11.40872
       O    -8.10522   -3.60634  -11.87730
      H1    -7.83867   -4.38921  -12.43657
       H    -6.65768   -5.22283  -14.47548
       O    -7.29812   -5.57124  -13.81657
      H1    -8.08447   -5.88520  -14.29275
       H    -7.93403   -9.02890   -8.77363
       O    -8.24973   -9.85524   -8.31384
      H1    -9.01820   -9.99825   -8.86248
       H    -5.06260   -4.39586   -7.20016
       O    -5.91682   -3.91885   -7.46688
      H1    -5.90484   -3.93416   -8.43429

