48
frame 5 | Written by MDAnalysis XYZWriter (release 2.4.3)
       H    -7.97774    0.84354   11.77426
       O    -8.01257   -0.16937   11.78654
      H1    -7.14741   -0.41925   12.15129
       H   -13.37202    3.56533   12.79918
       O   -12.93242    2.88202   12.33256
      H1   -12.25074    2.41710   12.82788
       H   -12.60049    1.29568   16.05610
       O   -11.89079    1.93162   15.96689
      H1   -11.39759    1.64542   16.75190
       H   -14.02301   -1.16399   15.72403
       O   -13.12541   -0.97987   15.38395
      H1   -13.10015   -1.72375   14.73848
       H    -8.65266    3.80168   11.24565
       O    -8.90310    3.05286   11.84264
      H1    -9.63420    2.69099   11.32154
       H    -8.02651    1.25195   14.27009
       O    -7.41368    2.06679   14.17656
      H1    -7.98498    2.77290   13.79326
       H   -13.48181    2.02807   10.77167
       O   -13.56341    1.53106    9.90530
      H1   -13.49242    0.63691   10.13273
       H   -14.15066    1.73196   18.12856
       O   -14.10137    0.82205   17.73768
      H1   -14.65073    0.27425   18.39416
       H   -10.70518    0.06069   18.36716
       O   -10.49253    1.00672   18.37730
      H1   -10.98927    1.29088   19.16073
       H   -13.20454   -1.54676   11.73664
       O   -13.82017   -1.30523   11.04470
      H1   -14.72863   -1.42078   11.39137
       H   -11.01426    3.95782    9.73833
       O   -11.25742    4.46869   10.54249
      H1   -11.97237    3.97834   10.92004
       H   -12.74303   -1.18290   17.47375
       O   -12.47977   -1.77688   18.19356
      H1   -12.05052   -2.51318   17.79207
       H    -8.57016   -0.45954   13.42260
       O    -8.93582   -0.24977   14.28310
      H1    -9.79639    0.14405   14.11870
       H   -11.68366    1.81544   10.46934
       O   -10.83389    1.34252   10.70877
      H1   -10.86024    1.04680   11.61435
       H   -11.80045    3.78115   16.56164
       O   -12.17737    4.52927   17.07479
      H1   -11.87544    4.36927   17.95214
       H   -11.43447    1.32533   14.34503
       O   -11.31839    0.92162   13.43543
      H1   -12.16421    0.49846   13.38411

