48
frame 4 | Written by MDAnalysis XYZWriter (release 2.4.3)
       H    -4.51677    2.60821   -2.29570
       O    -4.14985    2.02898   -2.97349
      H1    -4.79466    2.15652   -3.65576
       H    -6.62726    5.15250   -7.16687
       O    -6.52208    4.27351   -6.74572
      H1    -7.08877    4.25891   -6.01578
       H    -6.70195    6.58784   -8.41444
       O    -7.03016    6.88203   -7.55761
      H1    -8.00519    6.93778   -7.66550
       H    -7.76367    2.16893   -4.53596
       O    -7.11306    2.54780   -3.96508
      H1    -6.95665    1.97278   -3.18803
       H    -5.73951    9.60819   -7.36665
       O    -6.33297    9.34480   -6.65550
      H1    -6.58464    8.45464   -6.97665
       H    -1.31186    3.76617   -7.72039
       O    -1.52830    4.52801   -8.25201
      H1    -1.09036    4.55750   -9.14450
       H    -4.23338    7.23852   -5.95146
       O    -3.91825    8.13464   -6.16382
      H1    -4.70472    8.62064   -6.40743
       H    -4.01087    9.14488   -4.61643
       O    -4.16248    9.88284   -3.97902
      H1    -4.91617    9.50302   -3.55042
       H    -5.02718    5.72490   -3.59577
       O    -5.03022    5.86393   -2.64226
      H1    -4.18647    5.68545   -2.31911
       H    -7.72510    2.61215   -9.15657
       O    -6.94125    2.36059   -8.63851
      H1    -6.92484    3.06637   -8.00928
       H    -5.29175    5.09268   -5.85323
       O    -4.66567    5.57493   -5.34084
      H1    -3.88745    4.95012   -5.24668
       H    -1.65172    9.71325   -7.05073
       O    -1.43196    9.36730   -6.15268
      H1    -2.15468    8.71938   -5.89529
       H    -6.70670    4.93351   -2.34317
       O    -7.58793    4.95442   -2.75336
      H1    -7.61271    4.09647   -3.23139
       H    -3.37883    3.88204   -8.53043
       O    -4.11700    3.25146   -8.62333
      H1    -4.23717    3.03491   -9.54481
       H    -6.85657    8.32968   -2.23053
       O    -5.94007    8.50245   -2.41856
      H1    -5.66201    7.64037   -2.81308
       H    -2.95335    3.08030   -3.91352
       O    -2.55243    3.82827   -4.39771
      H1    -2.02185    4.28905   -3.70744

