48
frame 5 | Written by MDAnalysis XYZWriter (release 2.4.3)
       H    14.00858    5.30506   17.92845
       O    13.32477    5.10982   17.24280
      H1    13.55489    5.84277   16.67376
       H    10.63615    6.74411   18.74336
       O    11.00627    6.18217   19.45258
      H1    11.06015    5.39832   18.97004
       H    11.80176    4.29029   17.90562
       O    10.84659    4.11164   17.77628
      H1    10.71961    3.26493   18.18432
       H     9.11010    3.83853   16.78037
       O     8.43171    3.64125   16.08756
      H1     8.86914    3.95718   15.32107
       H    11.18399    3.23437   15.19377
       O    11.40416    2.32492   15.07963
      H1    12.03067    2.30649   14.37882
       H    13.48601    0.22326   16.15219
       O    12.71658   -0.32992   15.99546
      H1    12.60823   -0.35479   15.02775
       H    10.35256    1.27012   13.91386
       O    10.10022    0.66538   13.21277
      H1     9.29133    0.95979   12.91273
       H     3.03966    2.08803   19.17031
       O     3.78715    1.63355   18.69890
      H1     4.43552    2.37545   18.54536
       H     7.01972   -2.94665   17.86187
       O     7.83350   -3.51214   18.05115
      H1     8.52616   -3.14952   17.47337
       H    11.84864   -2.78157   17.31659
       O    12.62559   -2.23769   17.75965
      H1    12.78964   -1.52990   17.10428
       H     6.35350    3.83196   17.10827
       O     5.87054    3.65168   17.94405
      H1     6.53562    3.23049   18.51831
       H     9.20823    2.34375   19.49628
       O     9.86365    1.78180   19.03554
      H1    10.46064    1.48034   19.74109
       H     7.76644   -0.21267   17.80825
       O     6.94354   -0.38335   18.24144
      H1     6.25949   -0.20575   17.59885
       H    12.92526    1.85112   16.82736
       O    13.74181    2.19459   17.24337
      H1    13.75538    3.08985   16.93894
       H     6.78604    6.82978   19.17859
       O     7.74403    7.09010   19.24738
      H1     8.17073    6.25138   19.09622
       H     8.59574    1.70517   16.21300
       O     9.08690    0.89014   16.17507
      H1     9.97788    1.16310   15.88048

