48
frame 4 | Written by MDAnalysis XYZWriter (release 2.4.3)
       H    13.45942   14.15047  -17.65583
       O    14.07389   14.76708  -18.08834
      H1    14.22685   15.54802  -17.48968
       H    16.48761   14.40716  -17.02828
       O    16.58722   14.44485  -16.06706
      H1    15.85216   13.77763  -15.84769
       H    16.07613   14.99660  -13.05535
       O    16.85153   15.39405  -12.56567
      H1    16.80377   14.85775  -11.78208
       H    14.11517   11.82008  -11.64800
       O    14.76207   12.41236  -12.04744
      H1    14.46969   13.29273  -11.74625
       H    17.61513   16.61500  -16.13859
       O    17.31059   17.33879  -16.62845
      H1    16.34886   17.24610  -16.84216
       H     9.45871   19.89784  -15.16888
       O     9.88189   19.30097  -14.52180
      H1    10.68329   19.80657  -14.22009
       H    13.21917   17.52983  -10.22734
       O    13.61959   16.67255  -10.00301
      H1    13.28089   15.98651  -10.63103
       H     9.96919   17.44697  -14.81616
       O    10.32230   16.61772  -15.12985
      H1     9.80293   15.91291  -14.63985
       H    16.47170   17.04583  -12.31577
       O    15.97742   17.86684  -12.01617
      H1    15.11012   17.56584  -11.65401
       H    15.55505   18.84181  -13.53568
       O    15.03426   19.05467  -14.35704
      H1    15.61611   19.36166  -15.09117
       H    15.47550   11.79871  -15.11092
       O    14.96739   12.56190  -14.88246
      H1    14.74438   12.46141  -14.00574
       H    13.85590   17.28500  -14.23241
       O    13.07373   16.84246  -13.87867
      H1    12.42913   16.55621  -14.56424
       H    15.03535   15.36180   -9.93828
       O    15.87946   14.82073   -9.85498
      H1    16.45831   15.30886   -9.23283
       H    13.41838   19.55168  -13.46393
       O    12.58807   19.30283  -13.05100
      H1    12.45724   18.38742  -13.24530
       H    12.21176   14.20722  -12.10830
       O    13.01177   14.79816  -12.08388
      H1    12.92512   15.55628  -12.71661
       H    15.01344   17.65199  -15.81448
       O    14.76875   17.12180  -16.62142
      H1    13.93796   17.47746  -17.00090

