48
frame 4 | Written by MDAnalysis XYZWriter (release 2.4.3)
       H    -4.51677    2.60821   -2.29570
       O    -4.14985    2.02898   -2.97349
      H1    -4.79466    2.15652   -3.65576
       H    -6.62726    5.15250   -7.16687
       O    -6.52208    4.27351   -6.74572
      H1    -7.08877    4.25891   -6.01578
       H   -10.91928    7.34508   -4.29154
       O    -9.98228    7.40696   -4.60589
      H1    -9.56221    7.70663   -3.82743
       H    -7.76367    2.16893   -4.53596
       O    -7.11306    2.54780   -3.96508
      H1    -6.95665    1.97278   -3.18803
       H    -9.60977    4.21933   -5.59765
       O    -9.28992    5.06452   -5.94769
      H1    -9.66617    5.75188   -5.33778
       H    -9.01916    0.83519   -6.11445
       O    -8.89824    1.73787   -5.72160
      H1    -9.71758    1.95492   -5.23521
       H    -6.45326    5.24289    1.22333
       O    -6.71598    5.11158    0.29876
      H1    -7.53664    4.59088    0.30291
       H    -5.02718    5.72490   -3.59577
       O    -5.03022    5.86393   -2.64226
      H1    -4.18647    5.68545   -2.31911
       H    -8.01825    8.46888    0.60134
       O    -8.42475    7.61730    0.65469
      H1    -7.70168    6.94056    0.58320
       H    -5.29175    5.09268   -5.85323
       O    -4.66567    5.57493   -5.34084
      H1    -3.88745    4.95012   -5.24668
       H    -6.55094   -0.17393   -2.28337
       O    -6.83499    0.73391   -2.04998
      H1    -7.68027    0.68979   -1.55710
       H    -6.70670    4.93351   -2.34317
       O    -7.58793    4.95442   -2.75336
      H1    -7.61271    4.09647   -3.23139
       H    -5.75473    3.91004   -0.24740
       O    -5.13957    3.25919   -0.60673
      H1    -4.27729    3.70533   -0.50099
       H    -6.85657    8.32968   -2.23053
       O    -5.94007    8.50245   -2.41856
      H1    -5.66201    7.64037   -2.81308
       H    -8.47641    6.81089   -2.40365
       O    -8.57687    7.76579   -2.33157
      H1    -9.16133    7.93750   -1.52891
       H    -9.47810    3.84947   -0.32960
       O    -8.57692    3.54579   -0.67660
      H1    -8.33618    4.13233   -1.45951

