48
frame 4 | Written by MDAnalysis XYZWriter (release 2.4.3)
       H    -3.87448   18.91470  -13.86305
       O    -4.66836   19.46252  -13.73355
      H1    -4.74157   19.71771  -12.78029
       H   -10.90305   17.40615   -9.05288
       O   -10.45717   17.19463   -9.91237
      H1    -9.51787   17.24532   -9.66675
       H    -6.26926   14.24509  -10.41661
       O    -7.16658   14.08886  -10.18857
      H1    -7.75845   14.65484  -10.74462
       H    -8.43684   18.13518  -12.43959
       O    -7.73142   18.22783  -11.81061
      H1    -7.15172   17.48281  -12.11596
       H    -4.55250   16.48383  -12.55012
       O    -5.49721   16.71470  -12.72342
      H1    -5.41157   17.55036  -13.25914
       H    -7.17385   18.03067  -16.45239
       O    -7.30521   17.42256  -15.71650
      H1    -8.11954   17.82880  -15.32955
       H    -7.45629   17.26480   -7.96920
       O    -7.30089   17.51230   -8.85742
      H1    -6.39015   17.18285   -9.06873
       H    -7.92752   15.79917  -16.22122
       O    -8.32366   14.92328  -15.99096
      H1    -8.02073   14.82246  -15.12874
       H    -6.99867   13.65610  -13.06287
       O    -7.06267   14.47399  -13.60867
      H1    -6.40618   15.11535  -13.20005
       H    -7.75758   14.13821   -8.48812
       O    -7.97724   13.99997   -7.55290
      H1    -8.86317   13.69423   -7.54151
       H   -10.42774   18.06054  -14.33282
       O    -9.51767   18.38282  -14.32290
      H1    -9.58797   19.28186  -13.95507
       H   -10.49483   20.11400  -11.69897
       O   -10.89793   19.85435  -10.87346
      H1   -10.86736   18.89756  -10.84416
       H    -2.30755   15.40557  -12.01691
       O    -3.06777   16.00627  -11.96572
      H1    -3.25257   16.19170  -11.04220
       H   -10.11148   14.53373  -11.78306
       O   -10.12288   14.48722  -10.84060
      H1   -10.27661   15.44317  -10.52994
       H    -4.03840   16.31101   -8.66696
       O    -4.36569   16.95839   -9.33992
      H1    -4.03042   17.83592   -9.08950
       H    -9.47894   18.80186  -16.06564
       O    -9.44462   19.48812  -16.77033
      H1    -8.90203   19.21542  -17.52260

