48
frame 4 | Written by MDAnalysis XYZWriter (release 2.4.3)
       H    12.96757    9.79220  -15.55962
       O    12.67641   10.76530  -15.60874
      H1    13.52643   11.17917  -15.48470
       H    14.31854    2.19319  -16.97334
       O    14.86257    2.79345  -17.49985
      H1    14.65076    2.73513  -18.42673
       H    13.87371    7.45126  -15.47914
       O    13.79602    8.37341  -15.76914
      H1    13.38827    8.31032  -16.67382
       H    18.68096    7.24334  -16.46477
       O    19.68540    7.35648  -16.72731
      H1    19.94619    6.53041  -17.17803
       H    11.84737    5.75647  -14.46003
       O    12.81371    5.62693  -14.53442
      H1    12.85145    5.24381  -15.41771
       H    15.52433    9.68478  -15.99850
       O    16.25422   10.32142  -15.97543
      H1    16.66786   10.38542  -16.86256
       H    15.13891    4.55544  -17.64905
       O    14.99242    5.56143  -17.54594
      H1    15.30674    5.97588  -18.34781
       H    17.52125    5.89837  -12.75098
       O    18.20642    6.52075  -12.92359
      H1    18.99244    5.99564  -13.16425
       H    15.28153    8.41242  -11.09286
       O    15.02484    7.92169  -11.90767
      H1    15.69887    8.23620  -12.53602
       H    18.03593    4.96340  -15.72567
       O    18.43146    4.09949  -15.49995
      H1    17.76138    3.38545  -15.61330
       H    16.43623    3.33099  -13.96356
       O    15.74344    3.07070  -14.58169
      H1    14.94964    3.57906  -14.60010
       H    16.24711    6.40807  -16.72554
       O    17.02759    6.82459  -16.28099
      H1    16.70336    7.30635  -15.53728
       H    12.31374    9.38103  -18.30330
       O    12.85607    8.59842  -18.28408
      H1    12.26333    7.86910  -18.46341
       H    15.72886    6.17818  -12.03848
       O    16.02344    5.26948  -11.96373
      H1    15.22274    4.77585  -12.05511
       H    17.75624    7.92443  -14.03998
       O    16.97337    8.52149  -13.97438
      H1    17.05626    9.29733  -14.60686
       H    18.18476    2.30395  -17.87860
       O    17.51759    1.84907  -17.34528
      H1    16.61797    2.24184  -17.45158

