48
frame 5 | Written by MDAnalysis XYZWriter (release 2.4.3)
       H    10.28674   13.38640   17.27656
       O     9.66666   13.47847   17.98705
      H1    10.22197   13.86221   18.62164
       H    12.05710   13.33001   16.42468
       O    12.64014   13.70681   17.07673
      H1    13.08032   12.97073   17.44490
       H     8.97405   11.81956   17.93617
       O     8.47766   11.04062   18.31960
      H1     8.49885   10.44447   17.56767
       H     6.97698   16.25835   13.82379
       O     7.77893   15.98829   14.36356
      H1     7.84241   14.98760   14.18220
       H    10.81297   14.20581   15.18350
       O    10.69824   13.21376   15.24582
      H1    11.24898   12.91009   14.48869
       H    14.31498   14.42541   17.30262
       O    15.26239   14.86262   17.25013
      H1    15.17026   15.56686   17.88248
       H    12.23165   19.26933   17.94689
       O    12.36918   18.37403   18.11496
      H1    11.45070   18.04826   18.20443
       H     9.05048   13.14075   14.32891
       O     8.23991   13.31228   13.75510
      H1     7.53830   12.85813   14.27661
       H     7.58063   14.36234   18.11499
       O     6.81414   14.67594   18.57677
      H1     6.67516   13.96041   19.21724
       H    14.45047   12.18396   19.83849
       O    14.42460   11.84584   18.92644
      H1    15.25670   11.39447   18.78108
       H     7.97929   17.34095   19.15983
       O     7.02327   17.38203   19.08030
      H1     6.77841   16.42754   18.94271
       H     9.98297   16.44025   17.25436
       O     9.79793   17.03666   17.99060
      H1     9.15611   17.59402   17.58193
       H     6.87766    8.69881   18.81763
       O     6.27000    9.40273   18.46953
      H1     6.81292   10.23671   18.49766
       H    11.97310   13.31486   12.23668
       O    12.37249   12.98405   13.04957
      H1    12.78998   12.21358   12.71542
       H     9.27953   15.87660   15.23572
       O    10.19066   15.88296   15.63466
      H1    10.59865   16.77805   15.48281
       H    13.32053    9.66480   16.74791
       O    13.04118    8.91109   17.31031
      H1    13.64704    8.86949   18.07247

