48
frame 6 | Written by MDAnalysis XYZWriter (release 2.4.3)
       H   -15.39746   12.94204   18.54710
       O   -15.30293   12.17602   17.99018
      H1   -15.02134   11.45720   18.58035
       H    -7.85093   13.14784   14.67109
       O    -8.04224   12.91783   15.64405
      H1    -8.69385   13.52664   15.85631
       H   -10.92580   13.71007   14.69536
       O   -11.27618   12.99129   14.17485
      H1   -10.66924   12.24278   14.37289
       H    -9.77782   14.54273   18.87332
       O   -10.20199   15.16332   18.24330
      H1   -10.19927   15.92148   18.87339
       H   -13.84284   12.15799   16.34119
       O   -13.55093   11.48170   15.76358
      H1   -12.84180   12.04599   15.35197
       H   -13.78847   14.97888   17.32045
       O   -14.42082   15.14018   16.59536
      H1   -14.38969   16.14204   16.50545
       H    -8.24711   17.03999   19.62384
       O    -7.35570   17.46612   19.54974
      H1    -7.20211   17.71800   18.63360
       H   -12.20831   18.63717   16.91139
       O   -12.62380   17.75317   16.74551
      H1   -12.03377   17.04112   16.86854
       H   -11.55195   10.35119   17.63325
       O   -12.15397   10.93108   18.11207
      H1   -12.75642   11.13987   17.38534
       H   -13.15019   13.97809   13.84189
       O   -13.60898   14.84691   13.94212
      H1   -13.79831   14.79674   14.90270
       H    -9.86475   16.00908   15.10116
       O   -10.06824   15.16372   15.59098
      H1   -10.14134   15.40086   16.52440
       H   -13.60843   17.30523   18.83271
       O   -13.81683   16.69145   19.49346
      H1   -14.40071   17.02074   20.17180
       H   -12.02585   12.85877   18.34018
       O   -12.55425   13.65436   18.46588
      H1   -11.88008   14.33529   18.41396
       H   -16.18631   15.26502   16.86660
       O   -17.11379   15.35509   17.19030
      H1   -17.42893   16.15180   16.69940
       H   -14.87317   15.22699   19.17124
       O   -15.59654   14.58113   19.22447
      H1   -16.31048   15.02681   18.68879
       H    -9.67005   12.80845   20.23477
       O    -9.06325   13.24058   19.64253
      H1    -8.78605   12.50386   19.03623

