48
frame 6 | Written by MDAnalysis XYZWriter (release 2.4.3)
       H    14.89778   -0.83889  -16.12570
       O    14.98431   -0.07507  -15.60127
      H1    15.96212    0.13810  -15.38697
       H    16.49749   -5.64778  -12.04942
       O    15.59249   -5.85884  -12.22811
      H1    15.32431   -6.68168  -11.75463
       H    18.00689   -0.36159  -14.51006
       O    17.59780    0.45780  -14.86146
      H1    17.76512    0.46875  -15.83621
       H    14.71025   -2.55960  -14.71843
       O    14.42782   -2.92816  -15.56369
      H1    14.27608   -3.85295  -15.45329
       H    18.22003   -1.20609  -12.44260
       O    18.63371   -1.60948  -13.20920
      H1    19.55845   -1.63385  -13.02452
       H    15.17167   -3.62108  -11.17221
       O    14.47943   -3.41383  -10.49346
      H1    14.34441   -4.19261   -9.95639
       H    17.69092   -3.19081  -11.99438
       O    17.95100   -3.97555  -11.50380
      H1    17.51969   -3.93087  -10.65093
       H    18.37080   -1.68965  -16.39086
       O    17.57949   -2.02359  -16.80986
      H1    17.44270   -1.56615  -17.63477
       H    16.48608    3.34734  -14.16821
       O    16.93718    2.74187  -13.63089
      H1    17.21409    1.96643  -14.15891
       H    15.61507   -0.00077  -11.63854
       O    14.76351    0.35590  -11.99439
      H1    14.64140    1.23819  -11.73414
       H    16.58354    2.43305  -11.81095
       O    16.58744    2.37605  -10.86684
      H1    16.10007    3.10567  -10.48678
       H    19.03274   -3.38372  -14.57343
       O    19.26142   -4.29719  -14.52351
      H1    19.09014   -4.49460  -13.60174
       H    17.23867    0.57413  -11.04419
       O    17.22573   -0.30606  -11.37089
      H1    16.70473   -0.75637  -10.67386
       H    16.21550   -2.40881  -13.71339
       O    15.53534   -2.33895  -12.99765
      H1    15.39132   -1.34133  -12.97864
       H    19.44451   -5.31149  -16.01149
       O    19.21970   -5.83311  -16.83219
      H1    19.89814   -6.55372  -16.94412
       H    18.45063    2.31479  -12.38560
       O    19.32500    1.96738  -12.09881
      H1    19.61671    1.37784  -12.73146

