48
frame 5 | Written by MDAnalysis XYZWriter (release 2.4.3)
       H   -16.57993   -4.87828   -2.20340
       O   -17.12123   -4.43036   -1.55740
      H1   -17.82665   -3.99924   -2.08804
       H   -17.60601   -4.86108    0.36664
       O   -18.05018   -5.09275    1.18931
      H1   -18.84138   -4.49303    1.18249
       H   -13.26887   -3.72233   -1.70683
       O   -12.40321   -4.01945   -1.53008
      H1   -11.92613   -3.31362   -1.01359
       H   -14.10822   -0.54598    2.33725
       O   -13.84282   -0.97885    1.52984
      H1   -14.30991   -1.83349    1.61375
       H   -16.06110   -1.27444   -0.21456
       O   -16.87941   -1.26700    0.35232
      H1   -16.54767   -1.11486    1.21556
       H   -12.82672   -3.42775    3.65664
       O   -12.64428   -2.60375    4.10901
      H1   -13.47509   -2.09919    4.44198
       H   -14.81918   -4.60479    1.66873
       O   -14.90628   -3.61704    1.58104
      H1   -14.79337   -3.43835    0.63861
       H   -13.29232   -6.29608    3.75629
       O   -13.50013   -5.34028    3.94642
      H1   -13.51290   -5.18518    4.90974
       H   -11.42957   -3.04455    1.03104
       O   -11.71989   -2.27902    0.51220
      H1   -12.50778   -1.83298    0.89597
       H   -11.29010   -4.96408    1.44885
       O   -10.60009   -4.62556    2.04641
      H1    -9.84485   -4.97880    1.57491
       H   -17.34762   -4.38036    4.30364
       O   -17.60592   -3.61764    3.73354
      H1   -17.46609   -3.94788    2.80039
       H   -13.54382    0.17711   -1.63023
       O   -14.46064   -0.01289   -1.38732
      H1   -14.96228    0.35526   -2.18738
       H   -17.88612   -6.64531    2.37629
       O   -17.12708   -6.98817    2.81683
      H1   -16.38851   -7.04113    2.14196
       H   -12.49630   -1.05898   -3.10019
       O   -12.93096   -1.77138   -3.59409
      H1   -12.71507   -2.53211   -3.13195
       H   -12.41831   -5.41902   -0.43985
       O   -12.11291   -5.95944    0.32662
      H1   -11.81686   -6.78786   -0.07113
       H   -15.78277   -3.21403   -1.17783
       O   -14.91672   -2.80337   -1.12750
      H1   -14.89165   -1.92122   -1.54147

