48
frame 5 | Written by MDAnalysis XYZWriter (release 2.4.3)
       H     3.29875   16.85087  -15.70942
       O     3.22166   17.79991  -15.94057
      H1     3.44586   17.82368  -16.87629
       H     2.62851   14.28997  -14.85350
       O     2.87173   15.14562  -15.30844
      H1     3.21606   14.83848  -16.18754
       H     6.03935   16.12014  -15.60352
       O     6.24857   15.51474  -16.37755
      H1     5.48010   15.49141  -16.93069
       H     0.76673   15.31993  -18.14400
       O     1.06042   16.19737  -17.87750
      H1     1.47215   16.10136  -17.02705
       H     7.53752   12.77104  -15.54714
       O     7.22878   13.42941  -14.94755
      H1     7.00859   14.18755  -15.51336
       H     3.52059   13.80767  -17.83124
       O     4.22762   14.49542  -17.77943
      H1     3.98225   15.20828  -18.40892
       H     9.01221   16.36590  -16.53918
       O     8.53912   16.79967  -17.21908
      H1     7.62073   16.48729  -17.04758
       H     1.39395   17.64578  -15.19728
       O     0.43171   17.69974  -14.86710
      H1     0.40161   18.16713  -14.09234
       H     5.73016   13.70863  -18.35837
       O     6.39996   13.00776  -18.48482
      H1     7.26020   13.14913  -18.10373
       H     9.46299   13.90079  -18.06109
       O     9.00169   13.40941  -17.36814
      H1     8.82169   14.12335  -16.69233
       H     0.09148   12.20163  -18.98380
       O     0.00230   13.14777  -18.74797
      H1    -0.81608   13.26097  -18.30429
       H     1.66975   12.02881  -15.76501
       O     2.20654   11.85624  -14.94098
      H1     2.19373   10.86978  -14.92025
       H     3.06134   17.27416  -19.06820
       O     3.96914   17.23018  -18.81725
      H1     4.29504   18.12233  -19.11722
       H     5.72279   11.46166  -18.48859
       O     5.04371   10.73074  -18.62666
      H1     5.44123   10.07316  -19.19193
       H     0.92962   18.03990  -18.63722
       O     1.19422   18.87145  -19.05322
      H1     1.07427   19.52401  -18.40380
       H     2.00769   12.25157  -18.40390
       O     2.68596   12.14987  -17.72489
      H1     3.45424   11.82047  -18.18744

