48
frame 6 | Written by MDAnalysis XYZWriter (release 2.4.3)
       H     9.97183    5.42114  -11.80642
       O    10.48682    5.30238  -11.03784
      H1     9.84066    4.92529  -10.38772
       H     8.00176    8.98930  -12.25107
       O     8.81166    9.44305  -12.50492
      H1     9.38609    9.23514  -11.77103
       H     9.46890    2.08597   -7.09091
       O     8.64036    1.61543   -7.17106
      H1     8.24768    1.86133   -8.09151
       H     5.35239    4.08572   -7.43985
       O     4.47729    3.88216   -7.75836
      H1     4.06247    3.12362   -7.33344
       H     8.78782    3.90434  -14.46641
       O     8.24991    4.51287  -13.94727
      H1     8.47369    5.33640  -14.30758
       H     4.62114    5.46098  -12.95010
       O     4.72595    4.57021  -12.52304
      H1     3.85412    4.47326  -12.07733
       H     7.20108    5.83487   -9.58577
       O     7.57966    5.13150  -10.17524
      H1     6.88717    4.78498  -10.74223
       H     8.39635    1.73686  -11.50427
       O     8.88138    2.05385  -12.23614
      H1     8.57035    2.94337  -12.44969
       H     6.73292    3.85218   -6.01634
       O     6.88617    4.57646   -6.60764
      H1     7.81204    4.56601   -6.86504
       H     9.40676    8.00786   -7.58849
       O     8.89391    8.66767   -8.07668
      H1     8.08727    8.10627   -8.10320
       H     6.61114    1.22598  -10.00477
       O     7.31572    1.70778   -9.56746
      H1     6.91259    2.51977   -9.25626
       H     9.40387    5.64811   -6.22315
       O     9.28185    5.57786   -7.18502
      H1    10.19534    5.56834   -7.42552
       H     6.34615    6.27071   -7.58654
       O     6.42461    6.78357   -8.37513
      H1     5.80554    7.56088   -8.30158
       H    11.61524    6.79086  -10.43229
       O    12.01689    7.65854  -10.56471
      H1    12.75032    7.63206   -9.96789
       H     6.94810    6.79403  -11.95382
       O     6.57613    7.55932  -12.42490
      H1     6.00917    7.99314  -11.74912
       H     3.59620    5.66683   -8.22303
       O     3.04877    6.48872   -8.20013
      H1     2.12573    6.27891   -8.37022

