48
frame 5 | Written by MDAnalysis XYZWriter (release 2.4.3)
       H   -10.21820   10.02004  -11.74074
       O    -9.53155    9.58925  -12.27144
      H1    -9.89979    8.70889  -12.40012
       H    -7.15537   11.17837  -12.29451
       O    -7.25064   12.18214  -12.27589
      H1    -8.13262   12.32681  -11.86001
       H    -8.73289   10.11595   -8.99858
       O    -9.11059    9.28135   -9.34743
      H1    -9.80155    9.05122   -8.69769
       H    -3.06253    7.73772   -9.98261
       O    -3.86226    7.29940  -10.37621
      H1    -4.12284    7.73242  -11.14502
       H    -6.47419   11.89195  -16.45793
       O    -6.13436   11.42917  -15.69821
      H1    -6.48825   10.53229  -15.59532
       H    -6.92948    7.18340  -14.33181
       O    -6.27090    6.73222  -13.80529
      H1    -5.82998    6.22585  -14.47520
       H   -10.73565    6.73995  -12.04843
       O   -10.42919    7.01103  -12.93574
      H1    -9.77668    6.32901  -13.15541
       H    -5.80082    9.62234   -9.40713
       O    -5.85297   10.40495   -8.89151
      H1    -5.06304   10.93891   -9.04457
       H    -6.68006    8.75548  -11.90800
       O    -6.89350    9.38865  -12.62329
      H1    -7.88970    9.34478  -12.66132
       H    -4.06512    9.88206  -13.75897
       O    -3.89744   10.84440  -13.71118
      H1    -4.67342   11.21682  -14.16285
       H   -10.05217   10.07557  -14.23715
       O   -10.42130    9.66048  -15.03043
      H1   -11.18373    9.15393  -14.73035
       H    -9.09290    8.17546  -14.95397
       O    -8.58252    7.47984  -15.38683
      H1    -9.17317    6.81798  -15.81962
       H    -4.69571    6.39595   -9.11828
       O    -5.50636    5.87078   -8.84342
      H1    -5.30755    5.02981   -8.40301
       H    -6.73669    7.10911  -10.07227
       O    -6.85869    8.02756  -10.25286
      H1    -7.74411    8.37560   -9.99158
       H    -3.43833    7.60238  -14.28253
       O    -3.93175    8.09135  -13.58408
      H1    -4.81775    7.68257  -13.52201
       H    -8.29209    4.83199  -14.30277
       O    -8.64813    5.16385  -13.45609
      H1    -8.03244    5.77304  -13.01771

