48
frame 6 | Written by MDAnalysis XYZWriter (release 2.4.3)
       H     6.91939    0.38270  -19.20947
       O     6.42405    0.83811  -18.50990
      H1     5.74627    1.34624  -18.90970
       H     3.14904    5.87537  -19.51404
       O     2.25699    5.54800  -19.46439
      H1     1.69875    6.29728  -19.06971
       H     8.10707   -1.96966  -19.10975
       O     8.90669   -2.10858  -18.55944
      H1     9.47267   -2.64756  -19.11860
       H     9.48114   -0.63220  -17.82695
       O     9.90663    0.05501  -17.27935
      H1    10.17330   -0.35446  -16.44312
       H     0.55361    2.33060  -19.00847
       O     1.26453    2.58931  -19.55151
      H1     1.42520    3.49589  -19.34828
       H     5.01138    3.09719  -14.33156
       O     4.90259    2.12513  -14.22116
      H1     5.32246    1.51972  -14.84450
       H     9.83503    2.10015  -16.41558
       O     9.76745    2.55170  -15.52122
      H1     9.40983    1.84767  -14.93184
       H     0.98394   -0.33577  -15.39588
       O     1.19090   -0.39060  -16.33362
      H1     1.83017    0.32678  -16.44071
       H     5.43439   -3.15908  -14.21693
       O     6.00758   -2.42935  -14.52589
      H1     5.46666   -1.71872  -14.88292
       H     7.64628    2.57972  -18.48166
       O     8.01791    3.24132  -19.05682
      H1     8.29740    3.96596  -18.49392
       H     7.11973   -0.03999  -15.48027
       O     6.26075    0.19036  -15.86148
      H1     6.50920    0.31278  -16.77682
       H     6.91876    4.96980  -16.45940
       O     6.21008    4.52761  -16.00007
      H1     6.71918    4.30129  -15.19483
       H     4.97069    3.96508  -16.91808
       O     4.26307    3.50462  -17.48338
      H1     3.62038    4.15872  -17.83888
       H     1.23599   -2.70636  -18.57166
       O     2.03927   -2.61454  -19.07430
      H1     2.62386   -2.01694  -18.59492
       H     3.36145    2.13212  -15.30481
       O     2.83945    1.79425  -16.06784
      H1     3.16596    2.42519  -16.76797
       H     3.81313   -1.16790  -16.90915
       O     3.75318   -0.88341  -17.81609
      H1     4.10738    0.04485  -17.88869

