48
frame 5 | Written by MDAnalysis XYZWriter (release 2.4.3)
       H     1.09563   12.21468  -12.80125
       O     1.17643   11.51880  -12.16191
      H1     0.38309   11.57003  -11.65398
       H    -1.61644    6.41166  -14.33489
       O    -2.28656    5.76771  -14.14670
      H1    -2.27305    5.37571  -13.27685
       H    -3.06253    7.73772   -9.98261
       O    -3.86226    7.29940  -10.37621
      H1    -4.12284    7.73242  -11.14502
       H     1.37067    8.20074   -9.62377
       O     0.98485    7.94006  -10.44889
      H1     0.99939    6.95381  -10.42572
       H    -1.32287    9.68164  -13.62257
       O    -1.41082   10.10316  -14.48328
      H1    -2.31136   10.59006  -14.29385
       H     2.23715    5.60289  -10.55380
       O     1.42181    5.20874  -10.89235
      H1     1.55990    5.26454  -11.88034
       H    -4.06512    9.88206  -13.75897
       O    -3.89744   10.84440  -13.71118
      H1    -4.67342   11.21682  -14.16285
       H     2.78676    5.93246  -13.87186
       O     1.98537    5.52186  -13.48563
      H1     1.78412    4.78391  -14.13427
       H    -0.70916    8.59080  -15.14024
       O    -0.40938    7.65219  -15.13419
      H1    -0.27202    7.43832  -14.17271
       H     1.12874    8.67841  -15.05549
       O     1.93269    9.16787  -14.95415
      H1     2.14053    9.02622  -14.06282
       H    -0.78164    8.12588   -8.98237
       O    -1.67721    8.30780   -9.24155
      H1    -2.10573    8.81021   -8.47654
       H    -3.76226    3.80762  -11.22212
       O    -3.36450    4.69813  -11.49725
      H1    -3.83614    5.38926  -10.95473
       H     0.20994   12.39031  -14.39335
       O    -0.75210   12.51482  -14.29667
      H1    -1.01728   11.60342  -14.31642
       H    -3.43833    7.60238  -14.28253
       O    -3.93175    8.09135  -13.58408
      H1    -4.81775    7.68257  -13.52201
       H    -1.96171    8.21327  -12.66704
       O    -1.05033    8.08337  -12.41842
      H1    -1.05221    8.05941  -11.49076
       H     2.26129    9.98214  -12.38226
       O     2.68791    9.12227  -12.34144
      H1     2.06621    8.58282  -11.83479

