48
frame 6 | Written by MDAnalysis XYZWriter (release 2.4.3)
       H    -1.02201   16.24016   -3.72080
       O    -1.75929   15.82172   -3.23098
      H1    -1.88894   16.48217   -2.55036
       H    -0.05534   17.24904   -5.57014
       O     0.44033   16.99369   -4.78985
      H1     0.89054   17.85677   -4.60762
       H     0.95539   14.63585   -7.21769
       O     0.33753   14.30695   -7.87041
      H1     0.62642   13.39335   -7.97853
       H     1.12327   12.31880   -4.64899
       O     1.36134   12.26357   -5.56722
      H1     0.63172   11.95986   -6.09327
       H    -2.14972   11.61976  -10.07307
       O    -1.50614   11.50980  -10.76887
      H1    -1.69398   12.11806  -11.52081
       H    -4.12644   15.72885   -5.28062
       O    -4.33106   16.57511   -5.71423
      H1    -4.96185   16.94253   -5.07088
       H    -0.40322   10.38608   -7.03758
       O    -0.21951   11.06578   -7.69847
      H1     0.61797   10.92191   -8.14827
       H    -2.17332   10.38852   -7.44056
       O    -2.50640    9.49170   -7.21487
      H1    -3.28107    9.58066   -6.70623
       H     1.81746   12.94753  -10.77079
       O     2.42559   13.23785  -10.08274
      H1     2.17896   14.12933   -9.84862
       H     1.64161   15.74466   -5.40497
       O     2.06860   15.02756   -5.96608
      H1     1.71298   14.16196   -5.67862
       H    -2.43895   13.73536   -6.31490
       O    -2.16573   13.88405   -7.26344
      H1    -1.20649   14.06102   -7.19279
       H    -1.93830   14.86544  -11.11155
       O    -2.55566   15.59731  -10.99512
      H1    -2.50822   15.96047  -10.06160
       H    -3.92320   13.79826   -4.13080
       O    -3.30530   14.16054   -4.80928
      H1    -2.74407   14.77863   -4.31208
       H    -3.92033   12.73893   -9.54951
       O    -3.62661   12.20022   -8.79397
      H1    -3.09060   12.86423   -8.28793
       H    -2.44163   15.76130   -7.98189
       O    -2.17920   16.51447   -8.53584
      H1    -2.62310   17.29568   -8.20000
       H     0.50346   16.21244   -7.95479
       O     0.61334   17.15449   -8.04187
      H1    -0.27106   17.51368   -8.29376

