48
frame 7 | Written by MDAnalysis XYZWriter (release 2.4.3)
       H   -12.43363   -7.51588   17.86693
       O   -13.33039   -7.93983   17.72779
      H1   -13.90353   -7.49869   18.37920
       H   -11.26876  -10.06051   17.01102
       O   -12.04792  -10.29937   17.52186
      H1   -12.45356   -9.41092   17.68354
       H   -14.24693  -10.03257   15.21200
       O   -13.95100  -10.83502   15.63540
      H1   -13.25366  -10.55837   16.32874
       H   -12.05590  -14.84062   19.86371
       O   -11.68450  -14.84619   18.99336
      H1   -10.93533  -14.27536   19.14771
       H   -10.03154   -8.52186   15.77612
       O    -9.56408   -9.30367   15.68010
      H1    -9.57811   -9.49139   14.77347
       H    -7.89012  -13.27423   16.14888
       O    -7.00337  -13.71740   16.30673
      H1    -6.37237  -13.83663   15.55158
       H   -11.74957  -10.98821   13.53486
       O   -10.78813  -11.23173   13.60610
      H1   -10.41221  -11.29408   12.69580
       H    -7.24584   -7.68344   15.33274
       O    -7.38542   -7.12485   14.54962
      H1    -8.05559   -7.62362   14.02203
       H    -4.85734  -10.75354   16.60888
       O    -4.67594  -10.35244   15.75690
      H1    -3.82536  -10.68193   15.45080
       H    -6.80216   -7.21462   19.39195
       O    -6.58407   -8.14665   19.18818
      H1    -6.85443   -8.28973   18.28275
       H    -7.92545  -15.66677   16.51598
       O    -8.50075  -16.36720   16.35130
      H1    -8.02264  -17.09695   15.88189
       H    -9.57200  -12.16790   15.24130
       O    -9.51532  -12.40972   16.16196
      H1   -10.32263  -12.95673   16.38513
       H    -6.26636   -9.44189   16.25828
       O    -7.00007   -8.88559   16.57425
      H1    -7.82467   -9.28135   16.27928
       H   -10.26644   -7.42276   17.87370
       O   -10.43331   -7.19316   16.94175
      H1    -9.70838   -6.58742   16.70061
       H    -6.16240  -12.09203   18.82280
       O    -6.05240  -11.73992   17.88854
      H1    -6.28894  -12.47995   17.29184
       H    -9.09682  -11.00555   17.69576
       O    -8.71943  -10.89884   18.55428
      H1    -7.81677  -11.04672   18.22771

