48
frame 6 | Written by MDAnalysis XYZWriter (release 2.4.3)
       H    -7.29052  -11.47326  -10.36262
       O    -7.17206  -10.95983  -11.17512
      H1    -6.21839  -10.80736  -11.31349
       H    -1.10838  -14.52336   -5.65540
       O    -0.79002  -13.58684   -5.80374
      H1    -1.47076  -12.96613   -6.15991
       H    -4.18620  -11.05240   -3.45803
       O    -3.82757  -11.45108   -4.31615
      H1    -4.53012  -11.63503   -4.92610
       H    -4.80067   -9.73702  -12.63871
       O    -4.42018  -10.32721  -11.97824
      H1    -4.02956   -9.75866  -11.29699
       H    -4.77632  -13.12496  -13.28099
       O    -4.43126  -13.24794  -12.40156
      H1    -4.27545  -12.32724  -12.09801
       H    -4.53217  -14.55676   -7.77504
       O    -4.31400  -15.27772   -7.17738
      H1    -4.61864  -15.02295   -6.31440
       H    -2.96441  -13.88769  -11.42227
       O    -2.10780  -14.30813  -11.32617
      H1    -1.83897  -13.82617  -10.51801
       H    -0.30330  -11.39962  -10.37309
       O    -0.45444  -12.14963   -9.77972
      H1     0.18212  -12.07916   -9.04302
       H    -2.58964  -15.72540   -6.65530
       O    -1.88228  -16.09999   -6.09113
      H1    -1.22951  -16.47145   -6.68012
       H    -3.51759  -12.25594   -8.44272
       O    -4.27369  -12.79074   -8.89661
      H1    -4.98749  -12.16317   -9.07440
       H    -1.41573  -11.82247   -8.39301
       O    -2.19844  -11.63609   -7.73059
      H1    -1.98982  -10.83367   -7.18413
       H    -2.35313  -10.97023  -12.81536
       O    -1.57114  -11.48543  -12.64628
      H1    -1.77454  -12.29978  -12.19470
       H    -6.46771  -12.76027   -5.13766
       O    -5.84935  -12.90776   -5.86002
      H1    -6.23449  -12.56747   -6.64299
       H    -2.13634   -8.10392  -10.12309
       O    -2.76300   -8.85736  -10.03864
      H1    -3.60745   -8.44233   -9.83224
       H    -7.33509  -12.87232   -8.50025
       O    -6.96821  -11.98309   -8.58885
      H1    -7.78412  -11.39007   -8.29184
       H    -2.96620  -10.35026   -5.18588
       O    -2.29491   -9.81505   -5.63269
      H1    -2.82381   -9.29694   -6.21545

