48
frame 6 | Written by MDAnalysis XYZWriter (release 2.4.3)
       H    -9.01481   19.45953   -7.26246
       O    -9.05692   19.31611   -6.30297
      H1    -9.92364   19.45925   -5.88444
       H   -11.18599   17.11905   -1.67899
       O   -11.68397   16.95015   -0.84440
      H1   -11.20431   16.24550   -0.42441
       H   -11.84463   20.03288   -4.97813
       O   -11.10908   19.56420   -4.62133
      H1   -11.23336   18.66342   -4.32268
       H   -13.15928   16.10932   -1.70625
       O   -13.97897   15.60060   -1.59427
      H1   -14.52259   15.64511   -2.38400
       H   -17.64238   18.20774   -5.86648
       O   -17.30080   19.00221   -5.51210
      H1   -17.67891   19.80378   -5.82329
       H   -12.98535   13.19641   -4.94270
       O   -13.18885   13.80610   -5.66219
      H1   -12.35073   13.83364   -6.19252
       H   -10.66085   16.22900   -3.58255
       O   -10.75136   17.18913   -3.35251
      H1    -9.90949   17.47805   -3.01719
       H   -15.89469   16.94144   -3.74511
       O   -15.85222   15.96801   -3.52629
      H1   -16.77471   15.75599   -3.27996
       H   -10.14846   16.78054   -6.73380
       O   -10.83598   16.53854   -7.38562
      H1   -11.61828   16.58144   -6.82777
       H   -14.14340   16.68796   -7.16022
       O   -13.50403   16.59079   -6.41550
      H1   -13.83713   15.86076   -5.90463
       H   -18.70285   16.11263   -5.48217
       O   -18.45119   16.40660   -6.35366
      H1   -17.84719   15.74170   -6.65781
       H   -16.43939   18.56703  -10.29791
       O   -16.68143   18.28906   -9.42444
      H1   -16.40135   19.00057   -8.85484
       H   -15.54591   18.70469   -4.98967
       O   -14.68306   18.40229   -4.55171
      H1   -14.25084   17.81427   -5.21339
       H   -15.59019   16.67512   -9.42414
       O   -15.01756   16.22154   -8.81986
      H1   -14.50988   15.53021   -9.17892
       H   -15.57904   11.96898   -6.10031
       O   -15.73553   12.89821   -5.93398
      H1   -14.88978   13.32786   -6.04564
       H   -16.06972   15.00028   -8.17123
       O   -16.78584   14.42130   -7.86285
      H1   -16.29712   13.91968   -7.12154

