48
frame 0 | Written by MDAnalysis XYZWriter (release 2.4.3)
       H   -14.09285  -17.92423  -15.00881
       O   -13.56326  -17.90992  -15.80780
      H1   -12.66986  -18.22766  -15.55949
       H   -12.80534  -12.62668  -17.59042
       O   -12.20955  -12.43963  -16.83394
      H1   -11.66190  -13.21151  -16.78660
       H    -9.80908  -15.11419  -16.89010
       O   -10.47930  -14.44265  -16.64703
      H1   -10.06904  -13.89852  -15.92131
       H   -10.29707  -14.82553  -12.53074
       O   -10.12171  -14.49789  -11.60649
      H1    -9.85828  -13.56558  -11.75780
       H   -12.70572  -11.35351  -13.17200
       O   -11.75836  -11.33279  -12.94533
      H1   -11.27648  -11.76631  -13.62665
       H   -11.78535  -16.07927  -13.83678
       O   -10.85621  -15.76924  -14.04441
      H1   -10.91510  -15.38874  -14.92908
       H    -9.08934  -12.58334  -14.48933
       O    -9.99248  -12.45181  -14.81109
      H1    -9.91149  -11.83048  -15.54537
       H   -15.93709  -17.82761  -14.78317
       O   -15.43423  -17.60997  -13.98368
      H1   -15.51872  -18.31603  -13.27817
       H   -11.35612  -15.62506  -18.59649
       O   -12.28456  -15.95565  -18.52193
      H1   -12.52029  -16.05681  -17.59882
       H   -13.58254  -13.51466  -16.07343
       O   -14.36314  -14.03441  -15.77087
      H1   -15.13981  -13.48846  -15.98728
       H   -15.01225  -12.73579  -13.25090
       O   -15.39180  -13.61549  -13.37361
      H1   -15.02891  -13.94436  -14.24585
       H    -8.52654  -17.15424  -17.26336
       O    -8.63780  -16.56558  -16.48521
      H1    -7.91336  -16.68858  -15.86222
       H   -11.71542  -18.93314  -11.70227
       O   -11.53261  -18.02520  -11.38390
      H1   -12.18308  -17.53336  -11.89988
       H    -9.67610  -17.65605  -12.69375
       O    -8.90785  -18.14147  -13.05810
      H1    -8.39430  -17.49851  -13.56723
       H   -11.60298  -19.82648  -14.61810
       O   -10.78908  -19.35260  -14.85452
      H1   -10.53947  -18.84423  -14.08130
       H   -14.20809  -16.56028  -13.10928
       O   -13.41519  -16.07616  -12.92164
      H1   -13.77325  -15.22497  -12.85217

