48
frame 0 | Written by MDAnalysis XYZWriter (release 2.4.3)
       H    -6.89018  -16.80739   11.44504
       O    -5.94213  -16.73653   11.39164
      H1    -5.61387  -17.34342   10.75272
       H   -10.49317  -15.75235   12.43743
       O   -11.30787  -15.36414   12.81452
      H1   -11.73240  -14.84968   12.10141
       H    -5.18912  -16.17514   14.63621
       O    -4.99292  -16.97221   14.20931
      H1    -5.03765  -16.62927   13.32666
       H    -7.76875  -14.25564   15.99183
       O    -7.30436  -14.91811   15.44732
      H1    -7.30216  -14.68043   14.52384
       H    -9.43168  -17.52026   12.39175
       O    -8.99366  -16.86037   11.87000
      H1    -9.40761  -16.93015   11.01257
       H    -7.57701  -13.40168   12.33256
       O    -7.80627  -14.27145   12.83776
      H1    -8.28282  -14.84750   12.20771
       H   -12.83029  -15.26884    8.48695
       O   -12.15221  -15.83929    8.92322
      H1   -12.62555  -16.45675    9.52132
       H   -12.47011  -17.40092   12.77263
       O   -12.42412  -17.83631   13.66884
      H1   -11.61829  -17.44726   14.06156
       H    -9.57606  -15.97295   17.18778
       O    -9.12751  -16.52481   16.61147
      H1    -8.41420  -15.88320   16.17978
       H    -4.37453  -14.98520   11.49551
       O    -4.66976  -14.38141   12.19517
      H1    -5.53636  -14.61437   12.42331
       H    -8.86551  -17.04144    8.87116
       O    -9.72680  -17.38406    9.10473
      H1   -10.35783  -16.62722    8.93639
       H    -9.45869  -19.11188   14.65150
       O    -9.66741  -18.21879   14.46910
      H1    -9.32346  -17.55771   15.07206
       H    -7.37101  -19.23406    7.65212
       O    -7.06597  -18.47213    8.26092
      H1    -6.59766  -18.86807    9.02501
       H   -13.14472  -14.08904   14.95154
       O   -12.62645  -14.79503   15.25623
      H1   -12.04394  -15.00584   14.50504
       H    -9.26828  -13.49215    9.30113
       O    -9.01952  -14.40494    9.58308
      H1    -8.31796  -14.63410    8.96535
       H   -12.44117  -18.63814   10.48974
       O   -12.96898  -17.91169   10.88885
      H1   -13.84350  -18.32459   10.76885

