48
frame 6 | Written by MDAnalysis XYZWriter (release 2.4.3)
       H     5.98451    2.77707   11.01147
       O     5.12443    2.34757   10.85156
      H1     5.13921    1.56591   11.34875
       H     3.39926   -2.43253   12.74747
       O     3.51596   -2.99501   11.95370
      H1     2.87501   -2.64424   11.33773
       H     7.40678   -2.25080   11.15496
       O     7.18643   -1.56893   10.49871
      H1     6.54676   -1.97490    9.86251
       H     4.78021   -3.20789    8.35982
       O     5.33018   -3.28189    9.12797
      H1     4.77085   -3.89889    9.67845
       H     6.69196   -4.29282    8.67853
       O     7.53262   -4.80635    8.81081
      H1     7.40562   -5.53850    8.22738
       H     2.46036   -0.23619    9.97387
       O     2.61031   -1.19190    9.73643
      H1     3.51850   -1.29257    9.48335
       H     8.43527   -6.32835   11.65097
       O     7.72710   -5.69556   11.55822
      H1     7.84385   -5.35051   10.64610
       H     9.03554    0.44904   13.65557
       O     8.96980    0.15177   12.73361
      H1     8.07008    0.31658   12.50570
       H     8.62482    0.41800    8.57644
       O     8.51649    0.90210    9.39000
      H1     8.26984    0.17430    9.91452
       H     6.17141    0.43256    8.13379
       O     5.30666    0.52369    8.59379
      H1     5.51965    1.27947    9.19682
       H     7.67861   -3.76978   12.35798
       O     7.16795   -3.05834   12.83513
      H1     7.21128   -3.41794   13.72602
       H     4.58660   -4.45069   11.58455
       O     4.76163   -5.35422   11.27706
      H1     5.66424   -5.49362   11.46186
       H    11.62569   -0.52264   10.58755
       O    11.50078    0.37419   10.80145
      H1    10.54896    0.54273   10.77290
       H     6.29718   -0.63555   12.32617
       O     6.25462    0.25958   12.53343
      H1     5.69407    0.35372   13.29986
       H     9.02396   -3.03607   10.04608
       O     9.60608   -3.35623   10.73109
      H1     9.65460   -2.80925   11.57071
       H    10.95165   -2.21051   13.96211
       O    10.42854   -2.21572   13.14160
      H1     9.76211   -1.51480   13.24304

