48
frame 6 | Written by MDAnalysis XYZWriter (release 2.4.3)
       H     7.53907  -10.11999   -9.60223
       O     7.59684   -9.27000   -9.05222
      H1     7.79303   -8.60478   -9.70339
       H     8.23783  -13.94968   -2.45850
       O     7.84243  -14.59660   -3.00312
      H1     8.37681  -14.62004   -3.85460
       H     4.82568  -13.09797   -7.73333
       O     5.33631  -12.91450   -6.96012
      H1     4.78777  -12.25048   -6.57334
       H    10.68471  -12.69308   -8.53888
       O     9.76341  -12.54924   -8.74900
      H1     9.41866  -13.40967   -8.94743
       H    13.56730  -11.74903   -7.87965
       O    14.19166  -11.01785   -7.76822
      H1    15.04626  -11.35091   -8.19401
       H     6.60973  -14.39720   -7.60595
       O     7.33815  -15.01258   -7.54533
      H1     7.22854  -15.46763   -8.38674
       H    12.16854  -12.32236   -4.28599
       O    11.80208  -11.45206   -4.23414
      H1    11.11997  -11.40643   -4.90567
       H    10.39747  -17.11297   -6.62942
       O    11.21370  -16.58021   -6.47529
      H1    11.02125  -15.72569   -6.17960
       H     8.61058  -11.25775   -6.02868
       O     9.36508  -11.83917   -5.95246
      H1     9.40379  -12.20895   -6.86760
       H     9.75107  -15.35956  -10.81677
       O     9.06437  -14.75442  -10.59566
      H1     8.35777  -15.32148  -10.31762
       H    13.17561  -13.54416   -7.44014
       O    12.48338  -13.07963   -8.05128
      H1    12.78578  -13.47696   -8.91843
       H    13.16846  -14.36041   -3.64938
       O    13.37385  -13.68489   -4.27970
      H1    14.18605  -13.19090   -4.02196
       H    10.62075  -12.46434  -10.23834
       O    11.27748  -12.38724  -10.94153
      H1    11.82041  -13.17670  -10.80949
       H     6.47503  -10.74710   -5.91559
       O     6.99019  -10.02137   -6.23184
      H1     6.73152   -9.93066   -7.10971
       H    10.70092   -7.98343   -8.27839
       O     9.78712   -7.73363   -7.91639
      H1     9.36869   -8.59738   -7.86227
       H     8.51725  -14.78857   -6.14772
       O     9.27048  -14.61395   -5.53041
      H1     9.38093  -13.58864   -5.42715

