48
frame 7 | Written by MDAnalysis XYZWriter (release 2.4.3)
       H    15.26301  -10.62013   13.94433
       O    15.30191  -11.27615   14.57956
      H1    14.58538  -10.98877   15.20852
       H    12.21173  -16.68727   12.25000
       O    12.50622  -16.24879   11.44038
      H1    11.83515  -16.54922   10.76688
       H    15.83702  -15.17467   17.48067
       O    16.09739  -15.97738   17.84307
      H1    17.05623  -16.00848   17.74794
       H    15.58194  -18.91333   15.11607
       O    14.75300  -18.56527   14.88484
      H1    14.40031  -19.15040   14.20817
       H    12.85507  -13.57468   15.11523
       O    12.03271  -13.34968   15.59688
      H1    11.34181  -13.96309   15.28853
       H    11.58280  -11.76927   14.71076
       O    11.19485  -10.95037   14.37697
      H1    11.28842  -11.01031   13.40315
       H    16.36618  -15.97673   13.47261
       O    16.97256  -15.95526   12.73059
      H1    17.81768  -16.41439   12.92376
       H    10.58446  -16.02449   14.07931
       O    11.23041  -16.79578   14.06753
      H1    10.83345  -17.45090   13.49806
       H    14.89989  -12.99871   17.72559
       O    15.55838  -13.34145   17.16372
      H1    16.21762  -12.67193   16.96044
       H    18.10953  -12.18208   15.73313
       O    17.61120  -11.47741   16.19372
      H1    16.83125  -11.27019   15.68410
       H    16.57818  -13.02535   14.42491
       O    17.33220  -13.50593   14.14165
      H1    16.98537  -14.18400   13.50307
       H    14.37840  -14.48492   14.31463
       O    14.01412  -13.66516   13.93991
      H1    14.60446  -12.96378   14.29389
       H    13.09453  -14.13442   18.39380
       O    12.93541  -13.18552   18.25301
      H1    12.53272  -13.21857   17.34519
       H    12.56971  -14.62616   11.23929
       O    12.39334  -13.71248   10.96574
      H1    11.97009  -13.40921   11.81298
       H    16.39920  -13.27233   10.59030
       O    16.22057  -14.24752   10.49101
      H1    15.59818  -14.63092   11.10699
       H    15.80523  -16.04441   15.63081
       O    15.21985  -15.95108   14.90050
      H1    14.79705  -16.86483   14.90007

