48
frame 6 | Written by MDAnalysis XYZWriter (release 2.4.3)
       H   -16.79229  -17.51740   15.76122
       O   -16.26970  -17.65552   14.90869
      H1   -16.71295  -18.46333   14.53097
       H   -11.37299  -13.86530   13.20389
       O   -11.74543  -14.44415   12.55842
      H1   -12.69126  -14.32402   12.51386
       H   -15.12542  -18.84549   11.10808
       O   -14.98830  -18.38021   11.91673
      H1   -14.08277  -18.04242   11.80846
       H   -15.28119  -13.98292    9.18823
       O   -15.96993  -14.69908    9.17522
      H1   -15.95632  -15.19795   10.00511
       H   -12.18853  -17.19125   10.70247
       O   -12.50196  -17.20233   11.62623
      H1   -12.16304  -16.39691   12.06851
       H   -14.89892  -14.71723   13.23754
       O   -14.37989  -14.03254   13.66047
      H1   -14.68424  -14.14357   14.55931
       H   -13.37835  -18.52579    7.63576
       O   -13.98363  -17.92633    8.11808
      H1   -14.66224  -18.53143    8.49668
       H   -11.59035  -15.81968   14.01084
       O   -11.55368  -16.51655   14.61178
      H1   -10.69023  -16.52391   14.90847
       H   -10.20334  -14.39114    9.71733
       O   -10.36969  -13.56248   10.22479
      H1   -10.80404  -13.89329   11.02446
       H   -14.50660  -17.72134   15.72242
       O   -13.61829  -17.82166   16.08042
      H1   -12.99841  -17.27316   15.49376
       H   -14.56343  -16.58198    7.32955
       O   -15.06958  -15.83921    6.94292
      H1   -15.58720  -15.53131    7.72689
       H   -18.59345  -17.04018   13.44722
       O   -19.29873  -17.71534   13.40508
      H1   -18.97871  -18.38118   14.03095
       H   -10.44368  -17.57614    9.46805
       O   -11.17897  -16.95927    9.23890
      H1   -11.89589  -17.47964    8.85334
       H   -12.68651  -18.88528   14.65888
       O   -12.09585  -19.21956   13.96097
      H1   -12.02051  -18.45661   13.34955
       H   -17.10320  -15.73404   12.10629
       O   -16.10013  -15.84481   12.13517
      H1   -15.91394  -16.81085   12.04146
       H   -17.62950  -14.51687   14.17605
       O   -17.02699  -14.68272   14.93282
      H1   -16.76826  -15.58377   14.81191

