48
frame 7 | Written by MDAnalysis XYZWriter (release 2.4.3)
       H     9.53350   -2.05689   15.89709
       O     9.01445   -2.69702   16.40624
      H1     9.56778   -3.44778   16.29363
       H    16.20563   -2.55451   18.54096
       O    16.54368   -1.73684   18.15133
      H1    15.75866   -1.12842   18.22397
       H    10.40932   -7.09725   14.81458
       O    10.64289   -7.96050   14.45891
      H1     9.89895   -8.19470   13.83967
       H    11.09545   -8.05343   17.45181
       O    11.28540   -7.27184   17.97261
      H1    11.04885   -7.40572   18.90119
       H    13.70876   -7.20176   15.31217
       O    13.30065   -7.70938   14.55251
      H1    12.31705   -7.72132   14.55053
       H    12.11108   -4.25294   19.21318
       O    12.86815   -4.55389   18.79634
      H1    13.56229   -3.90044   18.90839
       H    16.03856   -4.43436   18.33685
       O    15.49507   -3.93853   18.95519
      H1    15.84038   -4.08605   19.82584
       H    10.62602   -6.09702   16.66929
       O    10.14107   -5.38909   16.20648
      H1    10.98773   -5.03306   15.85871
       H    14.66919   -7.69687   17.53639
       O    13.98592   -7.08177   17.14279
      H1    13.20406   -7.01500   17.69252
       H     6.69242   -3.08666   18.49738
       O     7.46887   -3.66919   18.55141
      H1     7.98592   -3.33014   17.78816
       H    11.78698   -0.92654   16.11009
       O    12.53636   -1.51808   16.07802
      H1    12.89914   -1.28634   15.22900
       H     8.33830   -5.54696   20.10212
       O     9.10794   -5.95717   19.60787
      H1     8.75049   -6.11380   18.72016
       H    13.02451   -3.39331   16.37367
       O    13.01732   -4.26459   15.94984
      H1    13.30300   -4.80384   16.66633
       H    16.21646   -5.99659   16.72093
       O    16.98170   -5.52997   17.14712
      H1    17.37429   -5.06547   16.41167
       H    13.50331   -1.09193   18.71336
       O    14.03184   -0.49804   18.16373
      H1    13.71052   -0.71087   17.28602
       H    13.97906   -3.73391   14.37824
       O    14.31691   -3.40769   13.51142
      H1    15.15248   -2.97807   13.76890

