48
frame 7 | Written by MDAnalysis XYZWriter (release 2.4.3)
       H    -2.11741   -8.23969    0.28896
       O    -2.84704   -8.60457    0.80507
      H1    -3.00266   -8.11250    1.63450
       H     0.69949   -8.58795    1.87067
       O     0.64156   -8.40673    0.91795
      H1     1.48587   -7.95478    0.67285
       H    -1.21129   -6.01671    5.97530
       O    -0.52726   -6.66564    6.19263
      H1    -1.04958   -7.39097    6.55477
       H     1.73595   -6.80959    3.84245
       O     1.05660   -7.42934    3.54096
      H1     0.80747   -7.81662    4.36604
       H    -0.58383   -5.14300    0.94336
       O    -0.60079   -4.49468    0.24792
      H1     0.24600   -4.54591   -0.19004
       H     0.26175   -2.20663    2.74310
       O     1.00656   -2.26154    3.41217
      H1     0.78508   -1.65393    4.10640
       H     3.33229   -4.44211    1.50991
       O     2.73116   -4.75129    2.20277
      H1     2.08577   -4.02024    2.32650
       H    -5.36625   -6.94620    5.43284
       O    -4.82698   -6.31262    4.88877
      H1    -5.31243   -6.15613    4.05967
       H    -2.01770   -7.05147   -1.46522
       O    -1.33414   -7.69547   -1.10929
      H1    -0.78156   -7.17854   -0.59262
       H    -2.53784  -10.06634    1.95829
       O    -2.52451  -10.78216    2.55112
      H1    -3.34115  -11.27935    2.59880
       H    -2.38384   -3.91124    5.72257
       O    -2.38202   -4.61316    5.07717
      H1    -3.33198   -4.66695    4.77480
       H    -2.24480   -6.94911    3.17968
       O    -3.10936   -7.43234    3.25851
      H1    -3.60367   -7.09338    4.00227
       H    -2.03642   -4.95387   -0.83630
       O    -2.75044   -5.30283   -1.39696
      H1    -2.74230   -4.64856   -2.17898
       H    -1.52970   -1.88716    2.05846
       O    -0.76818   -2.04584    1.43934
      H1    -0.88145   -2.92122    1.04427
       H    -1.09998   -5.19995    3.33260
       O    -0.98829   -5.85535    2.58539
      H1    -0.29200   -6.36345    2.97299
       H    -4.62787   -4.28580    0.15795
       O    -4.90198   -4.05361    1.01852
      H1    -5.11979   -3.13980    0.86046

