48
frame 7 | Written by MDAnalysis XYZWriter (release 2.4.3)
       H     7.02165   11.17557   -1.35179
       O     6.23804   10.62017   -1.19843
      H1     5.92712   10.32211   -2.03626
       H    13.59507    8.92743    2.55725
       O    13.33721    8.09194    2.08698
      H1    13.66471    8.05156    1.21558
       H     8.81162    9.78786    3.84554
       O     9.56329    9.80746    3.17271
      H1     9.57489   10.72027    2.93846
       H    10.91469    8.37657   -3.21424
       O    11.16086    8.01043   -2.36745
      H1    10.39032    7.71584   -1.85941
       H    10.02453    9.75312    0.87640
       O     9.76207    9.84640   -0.06921
      H1     9.54106    8.96196   -0.37758
       H    11.46662   11.03844   -1.05290
       O    11.78683   10.70661   -1.91131
      H1    11.51289    9.81096   -1.84657
       H    10.25455   10.22286    6.57153
       O    10.35935    9.50947    5.91212
      H1    10.24256    9.95920    5.04250
       H     7.20665    6.87191    0.73277
       O     6.45594    7.39447    0.37527
      H1     6.74317    8.20719   -0.01772
       H     8.24811    6.96759   -1.44055
       O     9.04345    7.16261   -0.89307
      H1     8.83802    6.58796   -0.14579
       H    10.57578   13.46869    4.98129
       O    10.65066   12.56331    4.59470
      H1    11.37641   12.58389    3.97450
       H     8.67627   12.28213   -1.97144
       O     8.47344   12.19453   -1.02245
      H1     8.97724   11.42788   -0.84576
       H    10.09596    7.97250    2.56187
       O    10.64909    7.17644    2.71751
      H1    11.11177    7.07177    1.86279
       H    12.04104   12.45102    1.65787
       O    11.68525   12.20950    0.75945
      H1    12.08220   12.89129    0.16439
       H     7.48390   11.74989    1.96419
       O     6.59201   11.39042    2.08278
      H1     6.53427   10.62954    1.53833
       H     9.79914   12.70498    2.91790
       O     9.23347   12.53428    2.10422
      H1     9.75489   12.58400    1.24312
       H     8.22304    5.02339    0.85053
       O     8.62215    5.74642    1.35285
      H1     9.47183    5.41404    1.69534

