48
frame 6 | Written by MDAnalysis XYZWriter (release 2.4.3)
       H    -1.02201   16.24016   -3.72080
       O    -1.75929   15.82172   -3.23098
      H1    -1.88894   16.48217   -2.55036
       H     1.25205   15.92283   -1.61458
       O     0.44105   15.57624   -1.15518
      H1    -0.05069   15.08455   -1.80874
       H    -2.09908   14.11191    3.39525
       O    -2.17675   15.05120    3.41232
      H1    -2.54961   15.27216    2.56072
       H     2.79991   12.55820   -0.48935
       O     3.01450   11.65609   -0.60843
      H1     3.97771   11.64634   -0.81205
       H     2.49633   16.90180   -2.78899
       O     2.54587   15.92392   -2.75462
      H1     3.26198   15.71501   -2.07960
       H     3.75343   15.07211    2.53857
       O     3.11889   15.47422    1.85548
      H1     2.62238   16.13426    2.34095
       H    -1.84716   11.21024   -1.25558
       O    -1.99516   11.23274   -2.24961
      H1    -2.90581   11.18440   -2.34549
       H    -0.65599   15.84266    3.21433
       O     0.27795   16.17927    3.15976
      H1     0.34092   16.94381    3.82043
       H     1.90882   13.87862    1.36016
       O     1.33387   13.55789    0.63554
      H1     1.06446   14.27985    0.05633
       H    -0.71604   18.30065    1.51988
       O    -0.53206   18.02224    0.58811
      H1    -0.33291   17.09207    0.54465
       H    -0.80397   11.19836    0.94113
       O    -0.42902   11.50450    0.08094
      H1     0.06437   12.31274    0.27035
       H     2.34393   12.25754    2.61895
       O     2.94356   11.65941    2.12337
      H1     2.65707   11.70826    1.18839
       H     0.58528   13.13884    3.96033
       O     1.32873   13.54449    3.50540
      H1     1.15337   14.45229    3.22577
       H     1.59732   12.22324   -2.35534
       O     0.80999   12.78092   -2.55648
      H1     0.07444   12.23783   -2.22331
       H     3.82431   14.77568    0.24762
       O     4.04072   14.60465   -0.68589
      H1     4.95016   14.91633   -0.70749
       H     5.53604   13.09717    2.07972
       O     4.91577   13.41540    2.78032
      H1     4.04551   12.94530    2.60165

