48
frame 7 | Written by MDAnalysis XYZWriter (release 2.4.3)
       H    18.28033    4.81479    6.26189
       O    17.91566    3.95287    6.64447
      H1    17.03059    4.28493    7.01290
       H    17.73721    7.05548    5.76512
       O    18.49578    6.47202    5.92279
      H1    19.24887    6.86521    5.39941
       H    16.34014    6.57450   10.87842
       O    15.52379    7.01795   10.61078
      H1    14.89771    6.44557   11.04962
       H    18.85057    6.03897    9.63757
       O    18.37549    5.57769   10.35846
      H1    18.96247    4.80778   10.53172
       H    15.54512    3.40337    8.24049
       O    15.30059    3.98005    7.50424
      H1    15.14613    4.89412    7.78280
       H    19.73337    7.90497    8.58170
       O    19.52478    6.96316    8.40261
      H1    19.01534    6.98048    7.64274
       H    15.32674   10.32534   10.26011
       O    15.29749    9.95076   11.20095
      H1    15.18668    9.02614   11.20636
       H    12.61894    7.96132    7.07926
       O    12.84747    8.13721    6.14849
      H1    12.12570    8.67668    5.81429
       H    15.28528    7.61603    5.62346
       O    16.09592    7.77861    5.14880
      H1    15.93093    7.34821    4.33320
       H    13.63342    6.99938    3.35349
       O    13.81343    6.40137    4.13627
      H1    13.32090    6.86867    4.82327
       H    14.64198    9.62745    6.27275
       O    14.66903   10.57249    6.09489
      H1    15.63120   10.61514    6.04886
       H    11.83883    6.86735    9.25964
       O    12.17959    6.62334    8.38199
      H1    11.38347    6.85848    7.85675
       H    13.64006    5.78872   12.89022
       O    13.68649    5.29267   12.06607
      H1    13.67586    4.34268   12.29101
       H    12.05113    3.48338    8.16886
       O    11.58338    3.06234    8.88898
      H1    10.64134    2.92656    8.80836
       H    11.13823    4.31742   10.37523
       O    11.19573    4.80963   11.23432
      H1    12.09470    5.03880   11.52650
       H    14.00088    6.25544    7.90330
       O    14.92794    6.51464    7.93605
      H1    15.10660    6.62504    8.89520

