48
frame 7 | Written by MDAnalysis XYZWriter (release 2.4.3)
       H    18.17183  -11.51423    8.10311
       O    17.70060  -12.18015    8.65686
      H1    18.39213  -12.69932    9.07409
       H    15.01350  -12.74934    5.73935
       O    15.35677  -12.82410    4.88116
      H1    16.28311  -12.45977    4.86128
       H    18.53726  -18.54193    1.64222
       O    18.11598  -18.91455    2.44116
      H1    17.66719  -19.72320    2.18152
       H    16.41183  -17.48449   12.05293
       O    16.39955  -18.42537   11.73037
      H1    15.52565  -18.78009   11.78999
       H    14.08688  -13.10405    7.40916
       O    13.73926  -13.75716    6.79940
      H1    14.11858  -14.56068    7.12763
       H    17.36082  -17.22807    9.06165
       O    17.93939  -17.83687    9.58568
      H1    17.28374  -18.16882   10.23951
       H    17.77315  -15.51455    4.48497
       O    16.89696  -15.50896    4.07432
      H1    16.34641  -15.15086    4.77961
       H    12.82570  -16.41500    8.22934
       O    13.57204  -16.96596    8.08427
      H1    13.49918  -17.63761    8.76107
       H    19.39339  -19.15546    5.66319
       O    18.45765  -18.91093    5.53392
      H1    18.31450  -19.30358    4.62251
       H    16.39920  -13.27233   10.59030
       O    16.22057  -14.24752   10.49101
      H1    15.59818  -14.63092   11.10699
       H    14.27058  -18.61866    5.46452
       O    14.33223  -18.84224    6.38727
      H1    13.83157  -18.14876    6.86185
       H    17.44280  -16.78352    1.33188
       O    16.74341  -16.11707    1.38216
      H1    16.67988  -15.83056    2.29806
       H    19.46636  -15.58435   10.49003
       O    19.10761  -14.79282   10.91453
      H1    18.17786  -14.73149   10.62635
       H    17.63755  -15.79621    7.22771
       O    18.39419  -16.36592    7.09540
      H1    18.01000  -17.17440    6.71108
       H    13.53417  -17.47882    3.46135
       O    14.35057  -17.89932    3.73357
      H1    15.13552  -17.25233    3.78474
       H    15.97909  -14.90489    8.74049
       O    15.88710  -15.41302    7.91549
      H1    15.15901  -16.00522    8.06527

