48
frame 6 | Written by MDAnalysis XYZWriter (release 2.4.3)
       H     0.27095  -16.69992    2.27027
       O     1.26916  -16.87167    2.35267
      H1     1.70680  -16.05799    2.61163
       H     2.44920  -14.47449    1.62394
       O     2.76575  -14.53334    2.54186
      H1     3.69677  -14.93145    2.34186
       H     2.39279  -10.84020    4.08575
       O     2.35496   -9.87198    4.12994
      H1     1.48807   -9.48188    4.37120
       H     2.24555  -15.36406   -0.49550
       O     1.96285  -14.53795   -0.03133
      H1     2.55091  -13.85161   -0.33323
       H     0.12624  -13.98239    5.97156
       O     0.88379  -14.04041    6.52942
      H1     1.47791  -13.40419    6.10471
       H     5.69220  -16.51425    1.42857
       O     5.48733  -15.67939    1.85318
      H1     6.02686  -15.06991    1.36970
       H     4.52927  -15.88160    4.83524
       O     4.27230  -16.81858    5.08044
      H1     3.54681  -17.02480    4.48303
       H    -1.66283  -15.85265    1.50530
       O    -1.42945  -16.13857    2.38541
      H1    -1.13254  -15.34817    2.88215
       H    -0.82407  -13.12613   -0.81153
       O    -0.27679  -13.82665   -1.24546
      H1     0.42231  -14.09891   -0.63096
       H     5.93414  -13.82242    4.56369
       O     5.19585  -14.41204    4.29950
      H1     5.50148  -14.92999    3.54389
       H    -0.05014  -11.60719    4.05156
       O    -0.37041  -11.94783    3.20147
      H1    -1.13141  -11.27594    3.01444
       H     3.54569  -12.56014    5.24668
       O     2.74287  -12.58800    4.72165
      H1     2.87624  -13.21105    4.03224
       H     2.18044  -16.95106    0.56303
       O     2.76623  -17.05387   -0.19464
      H1     2.27135  -17.65584   -0.79701
       H     0.35825  -17.68362    5.00294
       O     0.37362  -18.36524    4.33652
      H1     0.72182  -17.93982    3.51973
       H    -0.53782  -13.68308    3.98536
       O    -0.95534  -14.50752    4.37275
      H1    -1.85931  -14.20574    4.47356
       H     1.84838  -11.46372   -0.41334
       O     2.70960  -11.87443   -0.48440
      H1     2.94513  -11.85927   -1.43197

